
 OpenBabel04232216563D

194194  0  0  0  0  0  0  0  0999 V2000
    9.5638   19.4179   17.6366 C   0  0  0  0  0  0  0  0  0  0  0  0
    8.1591   19.5270   17.8680 N   0  0  0  0  0  0  0  0  0  0  0  0
    7.2255   20.1962   18.2863 C   0  0  0  0  0  0  0  0  0  0  0  0
    6.9890   19.0004   17.5721 C   0  0  0  0  0  0  0  0  0  0  0  0
    7.3968   17.8828   16.9089 O   0  0  0  0  0  0  0  0  0  0  0  0
    6.6022   16.8462   16.2697 C   0  0  0  0  0  0  0  0  0  0  0  0
    7.4090   15.8032   15.6421 O   0  0  0  0  0  0  0  0  0  0  0  0
    6.4373   14.8571   15.0682 O   0  0  0  0  0  0  0  0  0  0  0  0
    5.6075   15.5163   14.0949 O   0  0  0  0  0  0  0  0  0  0  0  0
    6.4286   16.0493   13.0645 O   0  0  0  0  0  0  0  0  0  0  0  0
    5.5876   16.7300   12.1324 O   0  0  0  0  0  0  0  0  0  0  0  0
    6.4017   17.2563   11.1049 O   0  0  0  0  0  0  0  0  0  0  0  0
    7.3284   18.1431   11.7197 O   0  0  0  0  0  0  0  0  0  0  0  0
    8.0908   18.6068   10.6592 C   0  0  0  0  0  0  0  0  0  0  0  0
    8.9920   19.4736   11.2607 O   0  0  0  0  0  0  0  0  0  0  0  0
    9.7838   19.9754   10.2028 O   0  0  0  0  0  0  0  0  0  0  0  0
   10.6979   20.8759   10.7938 O   0  0  0  0  0  0  0  0  0  0  0  0
   11.4814   21.3511    9.7353 C   0  0  0  0  0  0  0  0  0  0  0  0
   12.4293   22.2520   10.2612 O   0  0  0  0  0  0  0  0  0  0  0  0
   13.2384   21.5738   11.2211 C   0  0  0  0  0  0  0  0  0  0  0  0
   14.1810   22.4652   11.7739 O   0  0  0  0  0  0  0  0  0  0  0  0
   13.4874   23.5257   12.4126 C   0  0  0  0  0  0  0  0  0  0  0  0
   14.4240   24.4335   12.9723 O   0  0  0  0  0  0  0  0  0  0  0  0
   13.7429   25.4998   13.6127 C   0  0  0  0  0  0  0  0  0  0  0  0
   14.6818   26.4106   14.1701 O   0  0  0  0  0  0  0  0  0  0  0  0
   13.9925   27.4665   14.8196 C   0  0  0  0  0  0  0  0  0  0  0  0
   13.1747   26.9551   15.8726 O   0  0  0  0  0  0  0  0  0  0  0  0
   12.4866   28.0175   16.5047 C   0  0  0  0  0  0  0  0  0  0  0  0
   11.6553   28.6920   15.5787 O   0  0  0  0  0  0  0  0  0  0  0  0
   10.9857   29.7534   16.2276 C   0  0  0  0  0  0  0  0  0  0  0  0
   10.1753   30.4246   15.2847 O   0  0  0  0  0  0  0  0  0  0  0  0
    9.4788   31.4833   15.9259 C   0  0  0  0  0  0  0  0  0  0  0  0
   10.3886   32.4193   16.4855 O   0  0  0  0  0  0  0  0  0  0  0  0
    9.6811   33.4714   17.1099 C   0  0  0  0  0  0  0  0  0  0  0  0
    8.8573   32.9743   18.1553 O   0  0  0  0  0  0  0  0  0  0  0  0
    8.1648   34.0467   18.7634 C   0  0  0  0  0  0  0  0  0  0  0  0
    7.2856   33.4984   19.8707 C   0  0  0  0  0  0  0  0  0  0  0  0
    6.5368   34.6320   20.5457 C   0  0  0  0  0  0  0  0  0  0  0  0
    7.5162   35.6285   21.1470 C   0  0  0  0  0  0  0  0  0  0  0  0
    6.7660   36.7610   21.8120 C   0  0  0  0  0  0  0  0  0  0  0  0
    7.7487   37.7515   22.4047 C   0  0  0  0  0  0  0  0  0  0  0  0
    6.9956   38.8845   23.0740 C   0  0  0  0  0  0  0  0  0  0  0  0
    7.9764   39.8762   23.6685 C   0  0  0  0  0  0  0  0  0  0  0  0
    7.2232   41.0092   24.3378 C   0  0  0  0  0  0  0  0  0  0  0  0
    8.2042   42.0017   24.9305 C   0  0  0  0  0  0  0  0  0  0  0  0
    7.4510   43.1336   25.6015 C   0  0  0  0  0  0  0  0  0  0  0  0
    8.4320   44.1271   26.1925 C   0  0  0  0  0  0  0  0  0  0  0  0
    7.6788   45.2580   26.8651 C   0  0  0  0  0  0  0  0  0  0  0  0
    8.6597   46.2525   27.4544 C   0  0  0  0  0  0  0  0  0  0  0  0
    7.9065   47.3823   28.1287 C   0  0  0  0  0  0  0  0  0  0  0  0
    8.8875   48.3767   28.7180 C   0  0  0  0  0  0  0  0  0  0  0  0
    8.1343   49.5065   29.3923 C   0  0  0  0  0  0  0  0  0  0  0  0
    9.1152   50.5020   29.9799 C   0  0  0  0  0  0  0  0  0  0  0  0
    8.3620   51.6318   30.6542 C   0  0  0  0  0  0  0  0  0  0  0  0
    9.3430   52.6273   31.2417 C   0  0  0  0  0  0  0  0  0  0  0  0
    8.5897   53.7581   31.9144 C   0  0  0  0  0  0  0  0  0  0  0  0
    9.5707   54.7536   32.5019 C   0  0  0  0  0  0  0  0  0  0  0  0
    8.8175   55.8834   33.1762 C   0  0  0  0  0  0  0  0  0  0  0  0
    9.7984   56.8779   33.7654 C   0  0  0  0  0  0  0  0  0  0  0  0
    9.0452   58.0087   34.4381 C   0  0  0  0  0  0  0  0  0  0  0  0
   10.0262   59.0042   35.0256 C   0  0  0  0  0  0  0  0  0  0  0  0
    9.2730   60.1340   35.6999 C   0  0  0  0  0  0  0  0  0  0  0  0
   10.2539   61.1285   36.2892 C   0  0  0  0  0  0  0  0  0  0  0  0
    9.5007   62.2572   36.9653 C   0  0  0  0  0  0  0  0  0  0  0  0
   10.4817   63.2507   37.5562 C   0  0  0  0  0  0  0  0  0  0  0  0
    9.7285   64.3805   38.2306 C   0  0  0  0  0  0  0  0  0  0  0  0
   10.7095   65.3739   38.8216 C   0  0  0  0  0  0  0  0  0  0  0  0
    9.9562   66.5047   39.4942 C   0  0  0  0  0  0  0  0  0  0  0  0
   10.9372   67.4992   40.0834 C   0  0  0  0  0  0  0  0  0  0  0  0
   10.1840   68.6290   40.7578 C   0  0  0  0  0  0  0  0  0  0  0  0
   11.1651   69.6225   41.3488 C   0  0  0  0  0  0  0  0  0  0  0  0
   10.4119   70.7512   42.0249 C   0  0  0  0  0  0  0  0  0  0  0  0
   11.3929   71.7447   42.6158 C   0  0  0  0  0  0  0  0  0  0  0  0
   10.6396   72.8722   43.2936 C   0  0  0  0  0  0  0  0  0  0  0  0
   11.6196   73.8653   43.8866 C   0  0  0  0  0  0  0  0  0  0  0  0
   10.8634   74.9919   44.5638 C   0  0  0  0  0  0  0  0  0  0  0  0
   11.8419   75.9860   45.1575 C   0  0  0  0  0  0  0  0  0  0  0  0
   11.0915   77.1190   45.8362 C   0  0  0  0  0  0  0  0  0  0  0  0
   12.0807   78.1025   46.4235 C   0  0  0  0  0  0  0  0  0  0  0  0
   10.1311   20.2463   18.0736 H   0  0  0  0  0  0  0  0  0  0  0  0
    9.7599   19.3885   16.5613 H   0  0  0  0  0  0  0  0  0  0  0  0
    9.9002   18.4854   18.0961 H   0  0  0  0  0  0  0  0  0  0  0  0
    7.2084   21.1071   18.8312 H   0  0  0  0  0  0  0  0  0  0  0  0
    6.0022   17.2635   15.4545 H   0  0  0  0  0  0  0  0  0  0  0  0
    5.9745   16.3046   16.9821 H   0  0  0  0  0  0  0  0  0  0  0  0
    7.4464   19.1299    9.9430 H   0  0  0  0  0  0  0  0  0  0  0  0
    8.6045   17.7717   10.1675 H   0  0  0  0  0  0  0  0  0  0  0  0
   10.8408   21.8719    9.0194 H   0  0  0  0  0  0  0  0  0  0  0  0
   11.9917   20.5173    9.2391 H   0  0  0  0  0  0  0  0  0  0  0  0
   13.7629   20.7523   10.7217 H   0  0  0  0  0  0  0  0  0  0  0  0
   12.6106   21.1613   12.0254 H   0  0  0  0  0  0  0  0  0  0  0  0
   12.8591   23.1210   13.2174 H   0  0  0  0  0  0  0  0  0  0  0  0
   12.8588   24.0600   11.6906 H   0  0  0  0  0  0  0  0  0  0  0  0
   13.1133   25.0856   14.4124 H   0  0  0  0  0  0  0  0  0  0  0  0
   13.1110   26.0239   12.8858 H   0  0  0  0  0  0  0  0  0  0  0  0
   13.3724   27.9953   14.0820 H   0  0  0  0  0  0  0  0  0  0  0  0
   14.7258   28.1647   15.2365 H   0  0  0  0  0  0  0  0  0  0  0  0
   13.2205   28.7044   16.9376 H   0  0  0  0  0  0  0  0  0  0  0  0
   11.8693   27.5934   17.3042 H   0  0  0  0  0  0  0  0  0  0  0  0
   11.7236   30.4423   16.6504 H   0  0  0  0  0  0  0  0  0  0  0  0
   10.3597   29.3348   17.0245 H   0  0  0  0  0  0  0  0  0  0  0  0
    8.8373   31.0667   16.7109 H   0  0  0  0  0  0  0  0  0  0  0  0
    8.8509   31.9853   15.1802 H   0  0  0  0  0  0  0  0  0  0  0  0
    9.0672   33.9875   16.3649 H   0  0  0  0  0  0  0  0  0  0  0  0
   10.4106   34.1735   17.5280 H   0  0  0  0  0  0  0  0  0  0  0  0
    7.5480   34.5659   18.0206 H   0  0  0  0  0  0  0  0  0  0  0  0
    8.8996   34.7470   19.1698 H   0  0  0  0  0  0  0  0  0  0  0  0
    7.9010   32.9595   20.6017 H   0  0  0  0  0  0  0  0  0  0  0  0
    6.5798   32.7694   19.4586 H   0  0  0  0  0  0  0  0  0  0  0  0
    5.8888   34.2320   21.3317 H   0  0  0  0  0  0  0  0  0  0  0  0
    5.8969   35.1404   19.8137 H   0  0  0  0  0  0  0  0  0  0  0  0
    8.1645   36.0420   20.3674 H   0  0  0  0  0  0  0  0  0  0  0  0
    8.1608   35.1205   21.8741 H   0  0  0  0  0  0  0  0  0  0  0  0
    6.1181   36.3606   22.5985 H   0  0  0  0  0  0  0  0  0  0  0  0
    6.1265   37.2644   21.0773 H   0  0  0  0  0  0  0  0  0  0  0  0
    8.3982   38.1509   21.6163 H   0  0  0  0  0  0  0  0  0  0  0  0
    8.3900   37.2469   23.1375 H   0  0  0  0  0  0  0  0  0  0  0  0
    6.3460   38.4854   23.8625 H   0  0  0  0  0  0  0  0  0  0  0  0
    6.3542   39.3894   22.3413 H   0  0  0  0  0  0  0  0  0  0  0  0
    8.6260   40.2756   22.8802 H   0  0  0  0  0  0  0  0  0  0  0  0
    8.6178   39.3717   24.4014 H   0  0  0  0  0  0  0  0  0  0  0  0
    6.5747   40.6101   25.1272 H   0  0  0  0  0  0  0  0  0  0  0  0
    6.5807   41.5130   23.6054 H   0  0  0  0  0  0  0  0  0  0  0  0
    8.8518   42.4020   24.1410 H   0  0  0  0  0  0  0  0  0  0  0  0
    8.8477   41.4978   25.6620 H   0  0  0  0  0  0  0  0  0  0  0  0
    6.8045   42.7336   26.3921 H   0  0  0  0  0  0  0  0  0  0  0  0
    6.8064   43.6368   24.8705 H   0  0  0  0  0  0  0  0  0  0  0  0
    9.0775   44.5283   25.4017 H   0  0  0  0  0  0  0  0  0  0  0  0
    9.0775   43.6238   26.9225 H   0  0  0  0  0  0  0  0  0  0  0  0
    7.0343   44.8569   27.6569 H   0  0  0  0  0  0  0  0  0  0  0  0
    7.0321   45.7605   26.1355 H   0  0  0  0  0  0  0  0  0  0  0  0
    9.3032   46.6546   26.6624 H   0  0  0  0  0  0  0  0  0  0  0  0
    9.3073   45.7497   28.1830 H   0  0  0  0  0  0  0  0  0  0  0  0
    7.2630   46.9801   28.9207 H   0  0  0  0  0  0  0  0  0  0  0  0
    7.2589   47.8851   27.4001 H   0  0  0  0  0  0  0  0  0  0  0  0
    9.5310   48.7788   27.9260 H   0  0  0  0  0  0  0  0  0  0  0  0
    9.5351   47.8739   29.4466 H   0  0  0  0  0  0  0  0  0  0  0  0
    7.4918   49.1045   30.1853 H   0  0  0  0  0  0  0  0  0  0  0  0
    7.4856   50.0084   28.6641 H   0  0  0  0  0  0  0  0  0  0  0  0
    9.7576   50.9040   29.1869 H   0  0  0  0  0  0  0  0  0  0  0  0
    9.7639   50.0001   30.7081 H   0  0  0  0  0  0  0  0  0  0  0  0
    7.7196   51.2299   31.4472 H   0  0  0  0  0  0  0  0  0  0  0  0
    7.7133   52.1337   29.9259 H   0  0  0  0  0  0  0  0  0  0  0  0
    9.9863   53.0282   30.4490 H   0  0  0  0  0  0  0  0  0  0  0  0
    9.9907   52.1257   31.9710 H   0  0  0  0  0  0  0  0  0  0  0  0
    7.9464   53.3572   32.7071 H   0  0  0  0  0  0  0  0  0  0  0  0
    7.9420   54.2597   31.1850 H   0  0  0  0  0  0  0  0  0  0  0  0
   10.2131   55.1556   31.7089 H   0  0  0  0  0  0  0  0  0  0  0  0
   10.2193   54.2517   33.2301 H   0  0  0  0  0  0  0  0  0  0  0  0
    8.1740   55.4813   33.9682 H   0  0  0  0  0  0  0  0  0  0  0  0
    8.1699   56.3862   32.4476 H   0  0  0  0  0  0  0  0  0  0  0  0
   10.4429   57.2790   32.9737 H   0  0  0  0  0  0  0  0  0  0  0  0
   10.4451   56.3754   34.4951 H   0  0  0  0  0  0  0  0  0  0  0  0
    8.4018   57.6078   35.2308 H   0  0  0  0  0  0  0  0  0  0  0  0
    8.3975   58.5104   33.7088 H   0  0  0  0  0  0  0  0  0  0  0  0
   10.6686   59.4062   34.2326 H   0  0  0  0  0  0  0  0  0  0  0  0
   10.6748   58.5023   35.7538 H   0  0  0  0  0  0  0  0  0  0  0  0
    8.6295   59.7319   36.4919 H   0  0  0  0  0  0  0  0  0  0  0  0
    8.6254   60.6368   34.9714 H   0  0  0  0  0  0  0  0  0  0  0  0
   10.8965   61.5317   35.4970 H   0  0  0  0  0  0  0  0  0  0  0  0
   10.9025   60.6254   37.0167 H   0  0  0  0  0  0  0  0  0  0  0  0
    8.8571   61.8539   37.7566 H   0  0  0  0  0  0  0  0  0  0  0  0
    8.8533   62.7613   36.2374 H   0  0  0  0  0  0  0  0  0  0  0  0
   11.1263   63.6530   36.7652 H   0  0  0  0  0  0  0  0  0  0  0  0
   11.1282   62.7469   38.2852 H   0  0  0  0  0  0  0  0  0  0  0  0
    9.0839   63.9782   39.0216 H   0  0  0  0  0  0  0  0  0  0  0  0
    9.0820   64.8842   37.5017 H   0  0  0  0  0  0  0  0  0  0  0  0
   11.3550   65.7751   38.0308 H   0  0  0  0  0  0  0  0  0  0  0  0
   11.3550   64.8705   39.5515 H   0  0  0  0  0  0  0  0  0  0  0  0
    9.3118   66.1037   40.2859 H   0  0  0  0  0  0  0  0  0  0  0  0
    9.3096   67.0073   38.7646 H   0  0  0  0  0  0  0  0  0  0  0  0
   11.5807   67.9013   39.2914 H   0  0  0  0  0  0  0  0  0  0  0  0
   11.5848   66.9964   40.8120 H   0  0  0  0  0  0  0  0  0  0  0  0
    9.5395   68.2268   41.5489 H   0  0  0  0  0  0  0  0  0  0  0  0
    9.5375   69.1328   40.0289 H   0  0  0  0  0  0  0  0  0  0  0  0
   11.8087   70.0258   40.5575 H   0  0  0  0  0  0  0  0  0  0  0  0
   11.8125   69.1184   42.0766 H   0  0  0  0  0  0  0  0  0  0  0  0
    9.7683   70.3479   42.8162 H   0  0  0  0  0  0  0  0  0  0  0  0
    9.7645   71.2554   41.2971 H   0  0  0  0  0  0  0  0  0  0  0  0
   12.0355   72.1492   41.8244 H   0  0  0  0  0  0  0  0  0  0  0  0
   12.0411   71.2404   43.3427 H   0  0  0  0  0  0  0  0  0  0  0  0
    9.9959   72.4677   44.0841 H   0  0  0  0  0  0  0  0  0  0  0  0
    9.9924   73.3775   42.5664 H   0  0  0  0  0  0  0  0  0  0  0  0
   12.2636   74.2703   43.0964 H   0  0  0  0  0  0  0  0  0  0  0  0
   12.2671   73.3605   44.6140 H   0  0  0  0  0  0  0  0  0  0  0  0
   10.2202   74.5861   45.3540 H   0  0  0  0  0  0  0  0  0  0  0  0
   10.2166   75.4963   43.8358 H   0  0  0  0  0  0  0  0  0  0  0  0
   12.4879   76.3884   44.3678 H   0  0  0  0  0  0  0  0  0  0  0  0
   12.4895   75.4810   45.8845 H   0  0  0  0  0  0  0  0  0  0  0  0
   10.4470   76.7204   46.6288 H   0  0  0  0  0  0  0  0  0  0  0  0
   10.4454   77.6284   45.1112 H   0  0  0  0  0  0  0  0  0  0  0  0
   12.7189   77.6134   47.1666 H   0  0  0  0  0  0  0  0  0  0  0  0
   11.5492   78.9207   46.9136 H   0  0  0  0  0  0  0  0  0  0  0  0
   12.7172   78.5266   45.6402 H   0  0  0  0  0  0  0  0  0  0  0  0
  1  2  1  0  0  0  0
  1 80  1  0  0  0  0
  1 81  1  0  0  0  0
  1 82  1  0  0  0  0
  2  3  1  0  0  0  0
  2  4  1  0  0  0  0
  3  4  2  0  0  0  0
  3 83  1  0  0  0  0
  4  5  1  0  0  0  0
  5  6  1  0  0  0  0
  6  7  1  0  0  0  0
  6 84  1  0  0  0  0
  6 85  1  0  0  0  0
  7  8  1  0  0  0  0
  8  9  1  0  0  0  0
  9 10  1  0  0  0  0
 10 11  1  0  0  0  0
 11 12  1  0  0  0  0
 12 13  1  0  0  0  0
 13 14  1  0  0  0  0
 14 15  1  0  0  0  0
 14 86  1  0  0  0  0
 14 87  1  0  0  0  0
 15 16  1  0  0  0  0
 16 17  1  0  0  0  0
 17 18  1  0  0  0  0
 18 19  1  0  0  0  0
 18 88  1  0  0  0  0
 18 89  1  0  0  0  0
 19 20  1  0  0  0  0
 20 21  1  0  0  0  0
 20 90  1  0  0  0  0
 20 91  1  0  0  0  0
 21 22  1  0  0  0  0
 22 23  1  0  0  0  0
 22 92  1  0  0  0  0
 22 93  1  0  0  0  0
 23 24  1  0  0  0  0
 24 25  1  0  0  0  0
 24 94  1  0  0  0  0
 24 95  1  0  0  0  0
 25 26  1  0  0  0  0
 26 27  1  0  0  0  0
 26 96  1  0  0  0  0
 26 97  1  0  0  0  0
 27 28  1  0  0  0  0
 28 29  1  0  0  0  0
 28 98  1  0  0  0  0
 28 99  1  0  0  0  0
 29 30  1  0  0  0  0
 30 31  1  0  0  0  0
 30100  1  0  0  0  0
 30101  1  0  0  0  0
 31 32  1  0  0  0  0
 32 33  1  0  0  0  0
 32102  1  0  0  0  0
 32103  1  0  0  0  0
 33 34  1  0  0  0  0
 34 35  1  0  0  0  0
 34104  1  0  0  0  0
 34105  1  0  0  0  0
 35 36  1  0  0  0  0
 36 37  1  0  0  0  0
 36106  1  0  0  0  0
 36107  1  0  0  0  0
 37 38  1  0  0  0  0
 37108  1  0  0  0  0
 37109  1  0  0  0  0
 38 39  1  0  0  0  0
 38110  1  0  0  0  0
 38111  1  0  0  0  0
 39 40  1  0  0  0  0
 39112  1  0  0  0  0
 39113  1  0  0  0  0
 40 41  1  0  0  0  0
 40114  1  0  0  0  0
 40115  1  0  0  0  0
 41 42  1  0  0  0  0
 41116  1  0  0  0  0
 41117  1  0  0  0  0
 42 43  1  0  0  0  0
 42118  1  0  0  0  0
 42119  1  0  0  0  0
 43 44  1  0  0  0  0
 43120  1  0  0  0  0
 43121  1  0  0  0  0
 44 45  1  0  0  0  0
 44122  1  0  0  0  0
 44123  1  0  0  0  0
 45 46  1  0  0  0  0
 45124  1  0  0  0  0
 45125  1  0  0  0  0
 46 47  1  0  0  0  0
 46126  1  0  0  0  0
 46127  1  0  0  0  0
 47 48  1  0  0  0  0
 47128  1  0  0  0  0
 47129  1  0  0  0  0
 48 49  1  0  0  0  0
 48130  1  0  0  0  0
 48131  1  0  0  0  0
 49 50  1  0  0  0  0
 49132  1  0  0  0  0
 49133  1  0  0  0  0
 50 51  1  0  0  0  0
 50134  1  0  0  0  0
 50135  1  0  0  0  0
 51 52  1  0  0  0  0
 51136  1  0  0  0  0
 51137  1  0  0  0  0
 52 53  1  0  0  0  0
 52138  1  0  0  0  0
 52139  1  0  0  0  0
 53 54  1  0  0  0  0
 53140  1  0  0  0  0
 53141  1  0  0  0  0
 54 55  1  0  0  0  0
 54142  1  0  0  0  0
 54143  1  0  0  0  0
 55 56  1  0  0  0  0
 55144  1  0  0  0  0
 55145  1  0  0  0  0
 56 57  1  0  0  0  0
 56146  1  0  0  0  0
 56147  1  0  0  0  0
 57 58  1  0  0  0  0
 57148  1  0  0  0  0
 57149  1  0  0  0  0
 58 59  1  0  0  0  0
 58150  1  0  0  0  0
 58151  1  0  0  0  0
 59 60  1  0  0  0  0
 59152  1  0  0  0  0
 59153  1  0  0  0  0
 60 61  1  0  0  0  0
 60154  1  0  0  0  0
 60155  1  0  0  0  0
 61 62  1  0  0  0  0
 61156  1  0  0  0  0
 61157  1  0  0  0  0
 62 63  1  0  0  0  0
 62158  1  0  0  0  0
 62159  1  0  0  0  0
 63 64  1  0  0  0  0
 63160  1  0  0  0  0
 63161  1  0  0  0  0
 64 65  1  0  0  0  0
 64162  1  0  0  0  0
 64163  1  0  0  0  0
 65 66  1  0  0  0  0
 65164  1  0  0  0  0
 65165  1  0  0  0  0
 66 67  1  0  0  0  0
 66166  1  0  0  0  0
 66167  1  0  0  0  0
 67 68  1  0  0  0  0
 67168  1  0  0  0  0
 67169  1  0  0  0  0
 68 69  1  0  0  0  0
 68170  1  0  0  0  0
 68171  1  0  0  0  0
 69 70  1  0  0  0  0
 69172  1  0  0  0  0
 69173  1  0  0  0  0
 70 71  1  0  0  0  0
 70174  1  0  0  0  0
 70175  1  0  0  0  0
 71 72  1  0  0  0  0
 71176  1  0  0  0  0
 71177  1  0  0  0  0
 72 73  1  0  0  0  0
 72178  1  0  0  0  0
 72179  1  0  0  0  0
 73 74  1  0  0  0  0
 73180  1  0  0  0  0
 73181  1  0  0  0  0
 74 75  1  0  0  0  0
 74182  1  0  0  0  0
 74183  1  0  0  0  0
 75 76  1  0  0  0  0
 75184  1  0  0  0  0
 75185  1  0  0  0  0
 76 77  1  0  0  0  0
 76186  1  0  0  0  0
 76187  1  0  0  0  0
 77 78  1  0  0  0  0
 77188  1  0  0  0  0
 77189  1  0  0  0  0
 78 79  1  0  0  0  0
 78190  1  0  0  0  0
 78191  1  0  0  0  0
 79192  1  0  0  0  0
 79193  1  0  0  0  0
 79194  1  0  0  0  0
M  END
$$$$
