
 OpenBabel04232216583D

 40 39  0  0  0  0  0  0  0  0999 V2000
    4.5595   -3.8226    3.9574 N   0  0  0  0  0  0  0  0  0  0  0  0
    5.9825   -3.8089    3.9335 N   0  0  0  0  0  0  0  0  0  0  0  0
    6.4988   -5.0549    3.4924 N   0  0  0  0  0  0  0  0  0  0  0  0
    6.0630   -5.3654    2.1628 N   0  0  0  0  0  0  0  0  0  0  0  0
    6.5480   -4.4027    1.2095 N   0  0  0  0  0  0  0  0  0  0  0  0
    7.9798   -4.3937    1.1377 N   0  0  0  0  0  0  0  0  0  0  0  0
    8.4900   -5.6583    0.7001 N   0  0  0  0  0  0  0  0  0  0  0  0
    8.0225   -5.9796   -0.6207 N   0  0  0  0  0  0  0  0  0  0  0  0
    8.5566   -5.0928   -1.6177 N   0  0  0  0  0  0  0  0  0  0  0  0
    9.9979   -5.0878   -1.5786 N   0  0  0  0  0  0  0  0  0  0  0  0
   10.4980   -6.3919   -2.0140 C   0  0  0  0  0  0  0  0  0  0  0  0
   12.0206   -6.3922   -1.9323 C   0  0  0  0  0  0  0  0  0  0  0  0
   12.5541   -7.7770   -2.2942 C   0  0  0  0  0  0  0  0  0  0  0  0
   14.0768   -7.8002   -2.2702 C   0  0  0  0  0  0  0  0  0  0  0  0
   14.5987   -9.1787   -2.6551 C   0  0  0  0  0  0  0  0  0  0  0  0
   16.1157   -9.2065   -2.6547 C   0  0  0  0  0  0  0  0  0  0  0  0
    4.1959   -2.8739    4.0866 H   0  0  0  0  0  0  0  0  0  0  0  0
    4.1869   -4.3810    4.7260 H   0  0  0  0  0  0  0  0  0  0  0  0
    6.4114   -3.5244    4.8206 H   0  0  0  0  0  0  0  0  0  0  0  0
    6.2510   -5.8216    4.1238 H   0  0  0  0  0  0  0  0  0  0  0  0
    5.0367   -5.3245    2.1567 H   0  0  0  0  0  0  0  0  0  0  0  0
    6.2230   -3.4766    1.5139 H   0  0  0  0  0  0  0  0  0  0  0  0
    8.3400   -4.1956    2.0779 H   0  0  0  0  0  0  0  0  0  0  0  0
    8.1434   -6.3733    1.3494 H   0  0  0  0  0  0  0  0  0  0  0  0
    6.9989   -5.9065   -0.6123 H   0  0  0  0  0  0  0  0  0  0  0  0
    8.2165   -4.1490   -1.3926 H   0  0  0  0  0  0  0  0  0  0  0  0
   10.2562   -4.9640   -0.5947 H   0  0  0  0  0  0  0  0  0  0  0  0
   10.1774   -6.6016   -3.0408 H   0  0  0  0  0  0  0  0  0  0  0  0
   10.1214   -7.1991   -1.3715 H   0  0  0  0  0  0  0  0  0  0  0  0
   12.3475   -6.1285   -0.9186 H   0  0  0  0  0  0  0  0  0  0  0  0
   12.4297   -5.6369   -2.6143 H   0  0  0  0  0  0  0  0  0  0  0  0
   12.1920   -8.0571   -3.2913 H   0  0  0  0  0  0  0  0  0  0  0  0
   12.1612   -8.5162   -1.5883 H   0  0  0  0  0  0  0  0  0  0  0  0
   14.4327   -7.5318   -1.2671 H   0  0  0  0  0  0  0  0  0  0  0  0
   14.4674   -7.0461   -2.9647 H   0  0  0  0  0  0  0  0  0  0  0  0
   14.2315   -9.4512   -3.6517 H   0  0  0  0  0  0  0  0  0  0  0  0
   14.2200   -9.9320   -1.9530 H   0  0  0  0  0  0  0  0  0  0  0  0
   16.5182   -8.4780   -3.3652 H   0  0  0  0  0  0  0  0  0  0  0  0
   16.4772  -10.1986   -2.9388 H   0  0  0  0  0  0  0  0  0  0  0  0
   16.5090   -8.9697   -1.6599 H   0  0  0  0  0  0  0  0  0  0  0  0
  1  2  1  0  0  0  0
  1 17  1  0  0  0  0
  1 18  1  0  0  0  0
  2  3  1  0  0  0  0
  2 19  1  0  0  0  0
  3  4  1  0  0  0  0
  3 20  1  0  0  0  0
  4  5  1  0  0  0  0
  4 21  1  0  0  0  0
  5  6  1  0  0  0  0
  5 22  1  0  0  0  0
  6  7  1  0  0  0  0
  6 23  1  0  0  0  0
  7  8  1  0  0  0  0
  7 24  1  0  0  0  0
  8  9  1  0  0  0  0
  8 25  1  0  0  0  0
  9 10  1  0  0  0  0
  9 26  1  0  0  0  0
 10 11  1  0  0  0  0
 10 27  1  0  0  0  0
 11 12  1  0  0  0  0
 11 28  1  0  0  0  0
 11 29  1  0  0  0  0
 12 13  1  0  0  0  0
 12 30  1  0  0  0  0
 12 31  1  0  0  0  0
 13 14  1  0  0  0  0
 13 32  1  0  0  0  0
 13 33  1  0  0  0  0
 14 15  1  0  0  0  0
 14 34  1  0  0  0  0
 14 35  1  0  0  0  0
 15 16  1  0  0  0  0
 15 36  1  0  0  0  0
 15 37  1  0  0  0  0
 16 38  1  0  0  0  0
 16 39  1  0  0  0  0
 16 40  1  0  0  0  0
M  END
$$$$
