
 OpenBabel04232216513D

 68 69  0  0  1  0  0  0  0  0999 V2000
    9.1997    0.2839   -0.4155 C   0  0  0  0  0  0  0  0  0  0  0  0
    7.7867   -0.1288   -0.2730 C   0  0  0  0  0  0  0  0  0  0  0  0
    7.7007   -1.4208    0.5509 C   0  0  0  0  0  0  0  0  0  0  0  0
    6.3117   -1.9508    0.4698 C   0  0  3  0  0  0  0  0  0  0  0  0
    5.5947   -1.6888   -0.7232 C   0  0  0  0  0  0  0  0  0  0  0  0
    6.5666   -2.5200   -1.8044 C   0  0  0  0  0  0  0  0  0  0  0  0
    7.1027   -1.8694   -3.1481 C   0  0  0  0  0  0  0  0  0  0  0  0
    8.5047   -2.3431   -3.6194 C   0  0  0  0  0  0  0  0  0  0  0  0
    5.2239   -1.0073    0.4664 C   0  0  0  0  0  0  0  0  0  0  0  0
    5.4307   -0.4781    1.8115 N   0  0  0  0  0  0  0  0  0  0  0  0
    4.7613    0.6220    2.4269 C   0  0  0  0  0  0  0  0  0  0  0  0
    3.8415    1.1826    1.8354 O   0  0  0  0  0  0  0  0  0  0  0  0
    5.2775    1.1636    3.8498 C   0  0  0  0  0  0  0  0  0  0  0  0
    4.7073    2.6362    4.3844 C   0  0  0  0  0  0  0  0  0  0  0  0
    5.0525    3.1269    5.6876 C   0  0  0  0  0  0  0  0  0  0  0  0
    4.5458    4.4885    6.1345 C   0  0  0  0  0  0  0  0  0  0  0  0
    4.3868    4.5012    7.6373 C   0  0  0  0  0  0  0  0  0  0  0  0
    3.8724    5.8541    8.0918 C   0  0  0  0  0  0  0  0  0  0  0  0
    3.7000    5.8649    9.5992 C   0  0  0  0  0  0  0  0  0  0  0  0
    3.1901    7.2207   10.0501 C   0  0  0  0  0  0  0  0  0  0  0  0
    3.0177    7.2325   11.5572 C   0  0  0  0  0  0  0  0  0  0  0  0
    2.5101    8.5891   12.0089 C   0  0  0  0  0  0  0  0  0  0  0  0
    2.3377    8.6009   13.5171 C   0  0  0  0  0  0  0  0  0  0  0  0
    1.8296    9.9576   13.9716 C   0  0  0  0  0  0  0  0  0  0  0  0
    1.6547    9.9763   15.4820 C   0  0  0  0  0  0  0  0  0  0  0  0
    1.1479   11.3309   15.9321 C   0  0  0  0  0  0  0  0  0  0  0  0
    6.0126    0.5467    4.8408 C   0  0  0  0  0  0  0  0  0  0  0  0
    9.2494    1.1746   -1.0386 H   0  0  0  0  0  0  0  0  0  0  0  0
    9.7565   -0.5178   -0.8974 H   0  0  0  0  0  0  0  0  0  0  0  0
    9.6069    0.4639    0.5760 H   0  0  0  0  0  0  0  0  0  0  0  0
    7.3827   -0.2277   -1.2762 H   0  0  0  0  0  0  0  0  0  0  0  0
    7.1746    0.6656    0.1698 H   0  0  0  0  0  0  0  0  0  0  0  0
    7.9707   -1.2136    1.5851 H   0  0  0  0  0  0  0  0  0  0  0  0
    8.3937   -2.2010    0.2265 H   0  0  0  0  0  0  0  0  0  0  0  0
    6.1393   -2.9127    0.9362 H   0  0  0  0  0  0  0  0  0  0  0  0
    6.0694   -3.4459   -2.1096 H   0  0  0  0  0  0  0  0  0  0  0  0
    7.4744   -2.9075   -1.3196 H   0  0  0  0  0  0  0  0  0  0  0  0
    7.1359   -0.7780   -3.1203 H   0  0  0  0  0  0  0  0  0  0  0  0
    6.4052   -2.1348   -3.9477 H   0  0  0  0  0  0  0  0  0  0  0  0
    9.2939   -2.1014   -2.8980 H   0  0  0  0  0  0  0  0  0  0  0  0
    8.7817   -1.8450   -4.5622 H   0  0  0  0  0  0  0  0  0  0  0  0
    8.5400   -3.4204   -3.8149 H   0  0  0  0  0  0  0  0  0  0  0  0
    6.2542   -0.7568    2.3271 H   0  0  0  0  0  0  0  0  0  0  0  0
    4.0664    3.2075    3.6897 H   0  0  0  0  0  0  0  0  0  0  0  0
    3.6151    4.7386    5.6101 H   0  0  0  0  0  0  0  0  0  0  0  0
    5.2614    5.2527    5.8054 H   0  0  0  0  0  0  0  0  0  0  0  0
    5.3439    4.2774    8.1249 H   0  0  0  0  0  0  0  0  0  0  0  0
    3.6823    3.7163    7.9432 H   0  0  0  0  0  0  0  0  0  0  0  0
    2.9125    6.0716    7.6069 H   0  0  0  0  0  0  0  0  0  0  0  0
    4.5759    6.6396    7.7909 H   0  0  0  0  0  0  0  0  0  0  0  0
    4.6582    5.6458   10.0860 H   0  0  0  0  0  0  0  0  0  0  0  0
    2.9937    5.0816    9.9010 H   0  0  0  0  0  0  0  0  0  0  0  0
    2.2319    7.4403    9.5633 H   0  0  0  0  0  0  0  0  0  0  0  0
    3.8965    8.0040    9.7490 H   0  0  0  0  0  0  0  0  0  0  0  0
    3.9755    7.0114   12.0439 H   0  0  0  0  0  0  0  0  0  0  0  0
    2.3102    6.4501   11.8578 H   0  0  0  0  0  0  0  0  0  0  0  0
    1.5526    8.8098   11.5212 H   0  0  0  0  0  0  0  0  0  0  0  0
    3.2179    9.3711   11.7072 H   0  0  0  0  0  0  0  0  0  0  0  0
    3.2959    8.3790   14.0024 H   0  0  0  0  0  0  0  0  0  0  0  0
    1.6304    7.8177   13.8164 H   0  0  0  0  0  0  0  0  0  0  0  0
    0.8731   10.1776   13.4815 H   0  0  0  0  0  0  0  0  0  0  0  0
    2.5376   10.7385   13.6674 H   0  0  0  0  0  0  0  0  0  0  0  0
    2.6112    9.7582   15.9711 H   0  0  0  0  0  0  0  0  0  0  0  0
    0.9458    9.1969   15.7852 H   0  0  0  0  0  0  0  0  0  0  0  0
    1.8552   12.1183   15.6530 H   0  0  0  0  0  0  0  0  0  0  0  0
    1.0216   11.3459   17.0173 H   0  0  0  0  0  0  0  0  0  0  0  0
    0.1829   11.5548   15.4663 H   0  0  0  0  0  0  0  0  0  0  0  0
    6.5882    0.0243    5.5594 H   0  0  0  0  0  0  0  0  0  0  0  0
  1  2  1  0  0  0  0
  1 28  1  0  0  0  0
  1 29  1  0  0  0  0
  1 30  1  0  0  0  0
  2  3  1  0  0  0  0
  2 31  1  0  0  0  0
  2 32  1  0  0  0  0
  3  4  1  0  0  0  0
  3 33  1  0  0  0  0
  3 34  1  0  0  0  0
  4  5  1  0  0  0  0
  4  9  1  0  0  0  0
  4 35  1  0  0  0  0
  5  6  1  0  0  0  0
  5  9  2  0  0  0  0
  6  7  1  0  0  0  0
  6 36  1  0  0  0  0
  6 37  1  0  0  0  0
  7  8  1  0  0  0  0
  7 38  1  0  0  0  0
  7 39  1  0  0  0  0
  8 40  1  0  0  0  0
  8 41  1  0  0  0  0
  8 42  1  0  0  0  0
  9 10  1  0  0  0  0
 10 11  1  0  0  0  0
 10 43  1  0  0  0  0
 11 12  2  0  0  0  0
 11 13  1  0  0  0  0
 13 14  1  0  0  0  0
 13 27  2  0  0  0  0
 14 15  2  0  0  0  0
 14 44  1  0  0  0  0
 15 16  1  0  0  0  0
 15 27  1  0  0  0  0
 16 17  1  0  0  0  0
 16 45  1  0  0  0  0
 16 46  1  0  0  0  0
 17 18  1  0  0  0  0
 17 47  1  0  0  0  0
 17 48  1  0  0  0  0
 18 19  1  0  0  0  0
 18 49  1  0  0  0  0
 18 50  1  0  0  0  0
 19 20  1  0  0  0  0
 19 51  1  0  0  0  0
 19 52  1  0  0  0  0
 20 21  1  0  0  0  0
 20 53  1  0  0  0  0
 20 54  1  0  0  0  0
 21 22  1  0  0  0  0
 21 55  1  0  0  0  0
 21 56  1  0  0  0  0
 22 23  1  0  0  0  0
 22 57  1  0  0  0  0
 22 58  1  0  0  0  0
 23 24  1  0  0  0  0
 23 59  1  0  0  0  0
 23 60  1  0  0  0  0
 24 25  1  0  0  0  0
 24 61  1  0  0  0  0
 24 62  1  0  0  0  0
 25 26  1  0  0  0  0
 25 63  1  0  0  0  0
 25 64  1  0  0  0  0
 26 65  1  0  0  0  0
 26 66  1  0  0  0  0
 26 67  1  0  0  0  0
 27 68  1  0  0  0  0
M  END
$$$$
