
 OpenBabel04232216573D

 51 52  0  0  0  0  0  0  0  0999 V2000
    5.6153    0.2831    3.5567 C   0  0  0  0  0  0  0  0  0  0  0  0
    5.1651    0.2524    2.2063 O   0  0  0  0  0  0  0  0  0  0  0  0
    6.2611    0.2369    1.2924 C   0  0  0  0  0  0  0  0  0  0  0  0
    5.7973   -0.0758   -0.1158 C   0  0  0  0  0  0  0  0  0  0  0  0
    4.8319    0.6789   -0.8158 C   0  0  0  0  0  0  0  0  0  0  0  0
    4.2502    1.9738   -0.2869 C   0  0  0  0  0  0  0  0  0  0  0  0
    2.7278    2.0358   -0.2914 C   0  0  0  0  0  0  0  0  0  0  0  0
    4.4861    0.2884   -2.1224 C   0  0  0  0  0  0  0  0  0  0  0  0
    5.1284   -0.7714   -2.7665 C   0  0  0  0  0  0  0  0  0  0  0  0
    6.1218   -1.4930   -2.1107 C   0  0  0  0  0  0  0  0  0  0  0  0
    6.9467   -2.5609   -2.7582 C   0  0  0  0  0  0  0  0  0  0  0  0
    8.0717   -2.7385   -2.2928 O   0  0  0  0  0  0  0  0  0  0  0  0
    6.3805   -3.3510   -3.8650 C   0  0  0  0  0  0  0  0  0  0  0  0
    6.8896   -4.5375   -4.4682 C   0  0  0  0  0  0  0  0  0  0  0  0
    8.1050   -5.4125   -4.2326 C   0  0  0  0  0  0  0  0  0  0  0  0
    8.8882   -5.6839   -5.5211 C   0  0  0  0  0  0  0  0  0  0  0  0
    9.5605   -4.4482   -6.1341 C   0  0  0  0  0  0  0  0  0  0  0  0
   10.5803   -3.7951   -5.2000 C   0  0  0  0  0  0  0  0  0  0  0  0
   11.3009   -2.6292   -5.8760 C   0  0  0  0  0  0  0  0  0  0  0  0
   12.3053   -1.9876   -4.9313 C   0  0  0  0  0  0  0  0  0  0  0  0
    5.8283   -4.5449   -5.3020 C   0  0  0  0  0  0  0  0  0  0  0  0
    5.3316   -3.3460   -4.6981 C   0  0  0  0  0  0  0  0  0  0  0  0
    6.4329   -1.1453   -0.7848 C   0  0  0  0  0  0  0  0  0  0  0  0
    4.8029    0.6552    4.1867 H   0  0  0  0  0  0  0  0  0  0  0  0
    6.4802    0.9440    3.6784 H   0  0  0  0  0  0  0  0  0  0  0  0
    5.8737   -0.7290    3.8832 H   0  0  0  0  0  0  0  0  0  0  0  0
    6.9838   -0.5191    1.6260 H   0  0  0  0  0  0  0  0  0  0  0  0
    6.7644    1.2104    1.3016 H   0  0  0  0  0  0  0  0  0  0  0  0
    4.6392    2.7860   -0.9155 H   0  0  0  0  0  0  0  0  0  0  0  0
    4.6034    2.1902    0.7241 H   0  0  0  0  0  0  0  0  0  0  0  0
    2.3260    2.0505   -1.3102 H   0  0  0  0  0  0  0  0  0  0  0  0
    2.3921    2.9554    0.1997 H   0  0  0  0  0  0  0  0  0  0  0  0
    2.2897    1.1830    0.2355 H   0  0  0  0  0  0  0  0  0  0  0  0
    3.7395    0.8496   -2.6816 H   0  0  0  0  0  0  0  0  0  0  0  0
    4.8657   -0.9568   -3.7976 H   0  0  0  0  0  0  0  0  0  0  0  0
    7.7327   -6.3953   -3.9160 H   0  0  0  0  0  0  0  0  0  0  0  0
    8.7420   -5.0265   -3.4331 H   0  0  0  0  0  0  0  0  0  0  0  0
    8.2222   -6.1256   -6.2735 H   0  0  0  0  0  0  0  0  0  0  0  0
    9.6575   -6.4365   -5.3090 H   0  0  0  0  0  0  0  0  0  0  0  0
    8.8021   -3.7129   -6.4277 H   0  0  0  0  0  0  0  0  0  0  0  0
   10.0651   -4.7590   -7.0574 H   0  0  0  0  0  0  0  0  0  0  0  0
   11.3144   -4.5437   -4.8787 H   0  0  0  0  0  0  0  0  0  0  0  0
   10.0799   -3.4232   -4.2996 H   0  0  0  0  0  0  0  0  0  0  0  0
   10.5725   -1.8746   -6.1947 H   0  0  0  0  0  0  0  0  0  0  0  0
   11.8218   -2.9795   -6.7746 H   0  0  0  0  0  0  0  0  0  0  0  0
   11.8092   -1.6055   -4.0331 H   0  0  0  0  0  0  0  0  0  0  0  0
   12.8103   -1.1506   -5.4228 H   0  0  0  0  0  0  0  0  0  0  0  0
   13.0667   -2.7102   -4.6204 H   0  0  0  0  0  0  0  0  0  0  0  0
    5.4845   -5.1893   -6.1027 H   0  0  0  0  0  0  0  0  0  0  0  0
    4.4556   -2.7457   -4.9040 H   0  0  0  0  0  0  0  0  0  0  0  0
    7.2203   -1.6990   -0.2725 H   0  0  0  0  0  0  0  0  0  0  0  0
  1  2  1  0  0  0  0
  1 24  1  0  0  0  0
  1 25  1  0  0  0  0
  1 26  1  0  0  0  0
  2  3  1  0  0  0  0
  3  4  1  0  0  0  0
  3 27  1  0  0  0  0
  3 28  1  0  0  0  0
  4  5  1  0  0  0  0
  4 23  2  0  0  0  0
  5  6  1  0  0  0  0
  5  8  2  0  0  0  0
  6  7  1  0  0  0  0
  6 29  1  0  0  0  0
  6 30  1  0  0  0  0
  7 31  1  0  0  0  0
  7 32  1  0  0  0  0
  7 33  1  0  0  0  0
  8  9  1  0  0  0  0
  8 34  1  0  0  0  0
  9 10  2  0  0  0  0
  9 35  1  0  0  0  0
 10 11  1  0  0  0  0
 10 23  1  0  0  0  0
 11 12  2  0  0  0  0
 11 13  1  0  0  0  0
 13 14  1  0  0  0  0
 13 22  2  0  0  0  0
 14 15  1  0  0  0  0
 14 21  2  0  0  0  0
 15 16  1  0  0  0  0
 15 36  1  0  0  0  0
 15 37  1  0  0  0  0
 16 17  1  0  0  0  0
 16 38  1  0  0  0  0
 16 39  1  0  0  0  0
 17 18  1  0  0  0  0
 17 40  1  0  0  0  0
 17 41  1  0  0  0  0
 18 19  1  0  0  0  0
 18 42  1  0  0  0  0
 18 43  1  0  0  0  0
 19 20  1  0  0  0  0
 19 44  1  0  0  0  0
 19 45  1  0  0  0  0
 20 46  1  0  0  0  0
 20 47  1  0  0  0  0
 20 48  1  0  0  0  0
 21 22  1  0  0  0  0
 21 49  1  0  0  0  0
 22 50  1  0  0  0  0
 23 51  1  0  0  0  0
M  END
$$$$
