
 OpenBabel04232216463D

 49 50  0  0  0  0  0  0  0  0999 V2000
    2.5673   -0.0815    0.0054 C   0  0  0  0  0  0  0  0  0  0  0  0
    1.0698   -0.0277    0.0252 C   0  0  0  0  0  0  0  0  0  0  0  0
    0.3042   -1.1972    0.0316 C   0  0  0  0  0  0  0  0  0  0  0  0
   -1.1104   -1.1730    0.0649 C   0  0  0  0  0  0  0  0  0  0  0  0
   -1.8169   -2.5173    0.0472 C   0  0  0  0  0  0  0  0  0  0  0  0
   -1.3744   -3.5045    1.1461 C   0  0  0  0  0  0  0  0  0  0  0  0
   -1.7650   -3.0940    2.5697 C   0  0  0  0  0  0  0  0  0  0  0  0
   -3.2796   -3.0352    2.7665 C   0  0  0  0  0  0  0  0  0  0  0  0
   -3.6523   -2.7209    4.2048 C   0  0  0  0  0  0  0  0  0  0  0  0
   -1.7621    0.0841    0.0363 C   0  0  0  0  0  0  0  0  0  0  0  0
   -3.2545    0.2302   -0.0171 C   0  0  0  0  0  0  0  0  0  0  0  0
   -3.8875   -0.5035   -0.7733 O   0  0  0  0  0  0  0  0  0  0  0  0
   -3.9517    1.2865    0.8074 C   0  0  0  0  0  0  0  0  0  0  0  0
   -5.2921    1.4413    0.8867 C   0  0  0  0  0  0  0  0  0  0  0  0
   -6.3476    0.6198    0.1970 C   0  0  0  0  0  0  0  0  0  0  0  0
   -7.7912    0.9738    0.5431 C   0  0  0  0  0  0  0  0  0  0  0  0
   -5.6630    2.6080    1.7607 C   0  0  0  0  0  0  0  0  0  0  0  0
   -4.3653    2.9440    2.4773 C   0  0  0  0  0  0  0  0  0  0  0  0
   -3.2580    2.3319    1.6313 C   0  0  0  0  0  0  0  0  0  0  0  0
   -0.9761    1.2462   -0.0538 C   0  0  0  0  0  0  0  0  0  0  0  0
    0.4169    1.1984   -0.0085 C   0  0  0  0  0  0  0  0  0  0  0  0
    2.9333   -1.1129    0.0338 H   0  0  0  0  0  0  0  0  0  0  0  0
    2.9757    0.4446    0.8740 H   0  0  0  0  0  0  0  0  0  0  0  0
    2.9446    0.3847   -0.9103 H   0  0  0  0  0  0  0  0  0  0  0  0
    0.8228   -2.1542   -0.0096 H   0  0  0  0  0  0  0  0  0  0  0  0
   -1.6042   -2.9765   -0.9282 H   0  0  0  0  0  0  0  0  0  0  0  0
   -2.9018   -2.4186    0.0880 H   0  0  0  0  0  0  0  0  0  0  0  0
   -0.2902   -3.6632    1.1164 H   0  0  0  0  0  0  0  0  0  0  0  0
   -1.8185   -4.4844    0.9290 H   0  0  0  0  0  0  0  0  0  0  0  0
   -1.3125   -2.1285    2.8235 H   0  0  0  0  0  0  0  0  0  0  0  0
   -1.3415   -3.8296    3.2661 H   0  0  0  0  0  0  0  0  0  0  0  0
   -3.7263   -3.9947    2.4807 H   0  0  0  0  0  0  0  0  0  0  0  0
   -3.7175   -2.2662    2.1226 H   0  0  0  0  0  0  0  0  0  0  0  0
   -3.2768   -3.4901    4.8865 H   0  0  0  0  0  0  0  0  0  0  0  0
   -4.7413   -2.6775    4.3069 H   0  0  0  0  0  0  0  0  0  0  0  0
   -3.2429   -1.7537    4.5127 H   0  0  0  0  0  0  0  0  0  0  0  0
   -6.1967   -0.4355    0.4526 H   0  0  0  0  0  0  0  0  0  0  0  0
   -6.2298    0.7239   -0.8880 H   0  0  0  0  0  0  0  0  0  0  0  0
   -7.9899    0.8435    1.6120 H   0  0  0  0  0  0  0  0  0  0  0  0
   -8.4786    0.3193   -0.0026 H   0  0  0  0  0  0  0  0  0  0  0  0
   -8.0273    2.0075    0.2688 H   0  0  0  0  0  0  0  0  0  0  0  0
   -6.4327    2.3592    2.4967 H   0  0  0  0  0  0  0  0  0  0  0  0
   -6.0123    3.4498    1.1522 H   0  0  0  0  0  0  0  0  0  0  0  0
   -4.3595    2.5005    3.4800 H   0  0  0  0  0  0  0  0  0  0  0  0
   -4.2349    4.0252    2.6021 H   0  0  0  0  0  0  0  0  0  0  0  0
   -2.4729    1.9210    2.2719 H   0  0  0  0  0  0  0  0  0  0  0  0
   -2.8409    3.1178    0.9934 H   0  0  0  0  0  0  0  0  0  0  0  0
   -1.4302    2.2190   -0.2013 H   0  0  0  0  0  0  0  0  0  0  0  0
    0.9854    2.1251   -0.0362 H   0  0  0  0  0  0  0  0  0  0  0  0
  1  2  1  0  0  0  0
  1 22  1  0  0  0  0
  1 23  1  0  0  0  0
  1 24  1  0  0  0  0
  2  3  1  0  0  0  0
  2 21  2  0  0  0  0
  3  4  2  0  0  0  0
  3 25  1  0  0  0  0
  4  5  1  0  0  0  0
  4 10  1  0  0  0  0
  5  6  1  0  0  0  0
  5 26  1  0  0  0  0
  5 27  1  0  0  0  0
  6  7  1  0  0  0  0
  6 28  1  0  0  0  0
  6 29  1  0  0  0  0
  7  8  1  0  0  0  0
  7 30  1  0  0  0  0
  7 31  1  0  0  0  0
  8  9  1  0  0  0  0
  8 32  1  0  0  0  0
  8 33  1  0  0  0  0
  9 34  1  0  0  0  0
  9 35  1  0  0  0  0
  9 36  1  0  0  0  0
 10 11  1  0  0  0  0
 10 20  2  0  0  0  0
 11 12  2  0  0  0  0
 11 13  1  0  0  0  0
 13 14  2  0  0  0  0
 13 19  1  0  0  0  0
 14 15  1  0  0  0  0
 14 17  1  0  0  0  0
 15 16  1  0  0  0  0
 15 37  1  0  0  0  0
 15 38  1  0  0  0  0
 16 39  1  0  0  0  0
 16 40  1  0  0  0  0
 16 41  1  0  0  0  0
 17 18  1  0  0  0  0
 17 42  1  0  0  0  0
 17 43  1  0  0  0  0
 18 19  1  0  0  0  0
 18 44  1  0  0  0  0
 18 45  1  0  0  0  0
 19 46  1  0  0  0  0
 19 47  1  0  0  0  0
 20 21  1  0  0  0  0
 20 48  1  0  0  0  0
 21 49  1  0  0  0  0
M  END
$$$$
