
 OpenBabel04232216453D

 47 48  0  0  0  0  0  0  0  0999 V2000
    5.7064    0.2871   -2.2923 C   0  0  0  0  0  0  0  0  0  0  0  0
    6.6123   -0.6339   -1.3182 C   0  0  0  0  0  0  0  0  0  0  0  0
    5.8039   -0.1306   -0.0364 C   0  0  0  0  0  0  0  0  0  0  0  0
    5.7821   -0.2973    1.2635 C   0  0  0  0  0  0  0  0  0  0  0  0
    6.0612    1.1140    1.8236 C   0  0  0  0  0  0  0  0  0  0  0  0
    6.3141   -1.6015    1.4917 N   0  0  0  0  0  0  0  0  0  0  0  0
    5.4970   -2.6703    0.5921 C   0  0  0  0  0  0  0  0  0  0  0  0
    3.9629   -2.7900    0.8237 C   0  0  0  0  0  0  0  0  0  0  0  0
    7.7281   -1.4848    1.4643 C   0  0  0  0  0  0  0  0  0  0  0  0
    8.7454   -1.6574    0.5589 C   0  0  0  0  0  0  0  0  0  0  0  0
    9.8856   -0.8991    0.7136 N   0  0  0  0  0  0  0  0  0  0  0  0
   10.2072   -0.2732   -0.3421 N   0  0  0  0  0  0  0  0  0  0  0  0
   11.5504   -0.3259   -0.5896 C   0  0  0  0  0  0  0  0  0  0  0  0
   12.0817   -1.0797   -1.5596 C   0  0  0  0  0  0  0  0  0  0  0  0
   13.4909   -1.3768   -1.5620 C   0  0  0  0  0  0  0  0  0  0  0  0
   14.0121   -2.0994   -2.5532 C   0  0  0  0  0  0  0  0  0  0  0  0
   15.3296   -2.6793   -2.4830 C   0  0  0  0  0  0  0  0  0  0  0  0
   15.4500   -3.8618   -3.1067 C   0  0  0  0  0  0  0  0  0  0  0  0
   15.0499   -4.9925   -2.2874 C   0  0  0  0  0  0  0  0  0  0  0  0
   13.8694   -5.2304   -1.6244 C   0  0  0  0  0  0  0  0  0  0  0  0
   12.3202   -4.4237   -1.1790 C   0  0  0  0  0  0  0  0  0  0  0  0
   11.1746   -3.9424   -1.7776 N   0  0  0  0  0  0  0  0  0  0  0  0
    9.9327   -3.1605   -0.8215 N   0  0  0  0  0  0  0  0  0  0  0  0
    8.7280   -2.3172   -0.8190 C   0  0  0  0  0  0  0  0  0  0  0  0
    7.6645   -1.4771   -1.6594 N   0  0  0  0  0  0  0  0  0  0  0  0
    4.7910   -0.2321   -2.6126 H   0  0  0  0  0  0  0  0  0  0  0  0
    6.1979    0.9519   -2.9838 H   0  0  0  0  0  0  0  0  0  0  0  0
    5.2127    1.1036   -1.6778 H   0  0  0  0  0  0  0  0  0  0  0  0
    4.7161    0.0190   -0.2584 H   0  0  0  0  0  0  0  0  0  0  0  0
    5.1122    1.6626    1.9540 H   0  0  0  0  0  0  0  0  0  0  0  0
    6.5629    1.7160    1.0273 H   0  0  0  0  0  0  0  0  0  0  0  0
    6.6860    1.2524    2.6939 H   0  0  0  0  0  0  0  0  0  0  0  0
    6.0015   -3.6363    0.5595 H   0  0  0  0  0  0  0  0  0  0  0  0
    5.4878   -2.3711   -0.4625 H   0  0  0  0  0  0  0  0  0  0  0  0
    3.7043   -3.2247    1.7889 H   0  0  0  0  0  0  0  0  0  0  0  0
    3.5226   -3.4381    0.0437 H   0  0  0  0  0  0  0  0  0  0  0  0
    3.4138   -1.8407    0.7121 H   0  0  0  0  0  0  0  0  0  0  0  0
    7.9997   -0.7510    2.2149 H   0  0  0  0  0  0  0  0  0  0  0  0
   12.1857    0.1579    0.1260 H   0  0  0  0  0  0  0  0  0  0  0  0
   11.4530   -1.6127   -2.2792 H   0  0  0  0  0  0  0  0  0  0  0  0
   14.0600   -1.1247   -0.6714 H   0  0  0  0  0  0  0  0  0  0  0  0
   13.3815   -2.5128   -3.3153 H   0  0  0  0  0  0  0  0  0  0  0  0
   15.7767   -2.5772   -1.4791 H   0  0  0  0  0  0  0  0  0  0  0  0
   14.9286   -4.1076   -4.1197 H   0  0  0  0  0  0  0  0  0  0  0  0
   15.9532   -5.6505   -2.2226 H   0  0  0  0  0  0  0  0  0  0  0  0
   14.0036   -6.1648   -1.0329 H   0  0  0  0  0  0  0  0  0  0  0  0
   12.4021   -4.3727   -0.0619 H   0  0  0  0  0  0  0  0  0  0  0  0
  1  2  1  0  0  0  0
  1 26  1  0  0  0  0
  1 27  1  0  0  0  0
  1 28  1  0  0  0  0
  2  3  1  0  0  0  0
  2 25  2  0  0  0  0
  3  4  2  0  0  0  0
  3 29  1  0  0  0  0
  4  5  1  0  0  0  0
  4  6  1  0  0  0  0
  5 30  1  0  0  0  0
  5 31  1  0  0  0  0
  5 32  1  0  0  0  0
  6  7  1  0  0  0  0
  6  9  1  0  0  0  0
  7  8  1  0  0  0  0
  7 33  1  0  0  0  0
  7 34  1  0  0  0  0
  8 35  1  0  0  0  0
  8 36  1  0  0  0  0
  8 37  1  0  0  0  0
  9 10  2  0  0  0  0
  9 38  1  0  0  0  0
 10 11  1  0  0  0  0
 10 24  1  0  0  0  0
 11 12  2  3  0  0  0
 12 13  1  0  0  0  0
 13 14  2  3  0  0  0
 13 39  1  0  0  0  0
 14 15  1  0  0  0  0
 14 40  1  0  0  0  0
 15 16  2  3  0  0  0
 15 41  1  0  0  0  0
 16 17  1  0  0  0  0
 16 42  1  0  0  0  0
 17 18  2  3  0  0  0
 17 43  1  0  0  0  0
 18 19  1  0  0  0  0
 18 44  1  0  0  0  0
 19 20  2  3  0  0  0
 19 45  1  0  0  0  0
 20 21  1  0  0  0  0
 20 46  1  0  0  0  0
 21 22  2  3  0  0  0
 21 47  1  0  0  0  0
 22 23  1  0  0  0  0
 23 24  2  3  0  0  0
 24 25  1  0  0  0  0
M  END
$$$$
