
 OpenBabel04232216583D

 41 40  0  0  0  0  0  0  0  0999 V2000
   10.5350   -0.6256    1.1687 N   0  0  0  0  0  0  0  0  0  0  0  0
    9.9729   -1.2941    2.2749 N   0  0  0  0  0  0  0  0  0  0  0  0
   10.4299   -2.6328    2.1872 N   0  0  0  0  0  0  0  0  0  0  0  0
   10.0707   -3.3990    3.3887 C   0  0  0  0  0  0  0  0  0  0  0  0
    8.6145   -3.6101    3.4869 N   0  0  0  0  0  0  0  0  0  0  0  0
    8.0813   -4.0809    2.2292 N   0  0  0  0  0  0  0  0  0  0  0  0
    8.3790   -5.4561    2.0805 N   0  0  0  0  0  0  0  0  0  0  0  0
    7.9008   -5.9807    0.8507 N   0  0  0  0  0  0  0  0  0  0  0  0
    8.5075   -5.4268   -0.3253 N   0  0  0  0  0  0  0  0  0  0  0  0
    9.9443   -5.3894   -0.2406 N   0  0  0  0  0  0  0  0  0  0  0  0
   10.4724   -6.7486   -0.3946 C   0  0  0  0  0  0  0  0  0  0  0  0
   12.0005   -6.7221   -0.3561 C   0  0  0  0  0  0  0  0  0  0  0  0
   12.5496   -8.1483   -0.4116 C   0  0  0  0  0  0  0  0  0  0  0  0
   14.0755   -8.1666   -0.3933 C   0  0  0  0  0  0  0  0  0  0  0  0
   14.6041   -9.5990   -0.4509 C   0  0  0  0  0  0  0  0  0  0  0  0
   16.1230   -9.6285   -0.4460 C   0  0  0  0  0  0  0  0  0  0  0  0
   10.2390    0.3517    1.1204 H   0  0  0  0  0  0  0  0  0  0  0  0
   10.2470   -1.0621    0.2894 H   0  0  0  0  0  0  0  0  0  0  0  0
    8.9448   -1.2516    2.2762 H   0  0  0  0  0  0  0  0  0  0  0  0
   11.4511   -2.6234    2.1287 H   0  0  0  0  0  0  0  0  0  0  0  0
   10.4328   -2.9086    4.3001 H   0  0  0  0  0  0  0  0  0  0  0  0
   10.5712   -4.3752    3.3486 H   0  0  0  0  0  0  0  0  0  0  0  0
    8.2014   -2.7089    3.7230 H   0  0  0  0  0  0  0  0  0  0  0  0
    8.5446   -3.5705    1.4618 H   0  0  0  0  0  0  0  0  0  0  0  0
    8.0171   -5.9848    2.8789 H   0  0  0  0  0  0  0  0  0  0  0  0
    6.8797   -5.9346    0.7956 H   0  0  0  0  0  0  0  0  0  0  0  0
    8.1398   -4.4896   -0.5141 H   0  0  0  0  0  0  0  0  0  0  0  0
   10.1937   -5.0560    0.6962 H   0  0  0  0  0  0  0  0  0  0  0  0
   10.1402   -7.1815   -1.3458 H   0  0  0  0  0  0  0  0  0  0  0  0
   10.1130   -7.3961    0.4150 H   0  0  0  0  0  0  0  0  0  0  0  0
   12.3481   -6.2328    0.5628 H   0  0  0  0  0  0  0  0  0  0  0  0
   12.3859   -6.1391   -1.2020 H   0  0  0  0  0  0  0  0  0  0  0  0
   12.1854   -8.6456   -1.3187 H   0  0  0  0  0  0  0  0  0  0  0  0
   12.1673   -8.7190    0.4439 H   0  0  0  0  0  0  0  0  0  0  0  0
   14.4397   -7.6752    0.5172 H   0  0  0  0  0  0  0  0  0  0  0  0
   14.4605   -7.5959   -1.2467 H   0  0  0  0  0  0  0  0  0  0  0  0
   14.2365  -10.0957   -1.3566 H   0  0  0  0  0  0  0  0  0  0  0  0
   14.2286  -10.1704    0.4062 H   0  0  0  0  0  0  0  0  0  0  0  0
   16.5273   -9.0888   -1.3084 H   0  0  0  0  0  0  0  0  0  0  0  0
   16.4820  -10.6611   -0.4916 H   0  0  0  0  0  0  0  0  0  0  0  0
   16.5198   -9.1693    0.4650 H   0  0  0  0  0  0  0  0  0  0  0  0
  1  2  1  0  0  0  0
  1 17  1  0  0  0  0
  1 18  1  0  0  0  0
  2  3  1  0  0  0  0
  2 19  1  0  0  0  0
  3  4  1  0  0  0  0
  3 20  1  0  0  0  0
  4  5  1  0  0  0  0
  4 21  1  0  0  0  0
  4 22  1  0  0  0  0
  5  6  1  0  0  0  0
  5 23  1  0  0  0  0
  6  7  1  0  0  0  0
  6 24  1  0  0  0  0
  7  8  1  0  0  0  0
  7 25  1  0  0  0  0
  8  9  1  0  0  0  0
  8 26  1  0  0  0  0
  9 10  1  0  0  0  0
  9 27  1  0  0  0  0
 10 11  1  0  0  0  0
 10 28  1  0  0  0  0
 11 12  1  0  0  0  0
 11 29  1  0  0  0  0
 11 30  1  0  0  0  0
 12 13  1  0  0  0  0
 12 31  1  0  0  0  0
 12 32  1  0  0  0  0
 13 14  1  0  0  0  0
 13 33  1  0  0  0  0
 13 34  1  0  0  0  0
 14 15  1  0  0  0  0
 14 35  1  0  0  0  0
 14 36  1  0  0  0  0
 15 16  1  0  0  0  0
 15 37  1  0  0  0  0
 15 38  1  0  0  0  0
 16 39  1  0  0  0  0
 16 40  1  0  0  0  0
 16 41  1  0  0  0  0
M  END
$$$$
