
 OpenBabel04232216423D

160159  0  0  0  0  0  0  0  0999 V2000
   27.4643  -19.0484    9.2357 C   0  0  0  0  0  0  0  0  0  0  0  0
   28.3845  -19.9072    8.7814 C   0  0  0  0  0  0  0  0  0  0  0  0
   28.6485  -20.0873    7.3179 C   0  0  0  0  0  0  0  0  0  0  0  0
   28.4047  -21.4862    6.8990 N   0  0  0  0  0  0  0  0  0  0  0  0
   28.6626  -21.6167    5.5010 N   0  0  0  0  0  0  0  0  0  0  0  0
   28.4313  -22.9543    5.1031 N   0  0  0  0  0  0  0  0  0  0  0  0
   28.6839  -23.0923    3.7315 N   0  0  0  0  0  0  0  0  0  0  0  0
   28.4682  -24.4274    3.3328 N   0  0  0  0  0  0  0  0  0  0  0  0
   28.7164  -24.5816    1.9360 N   0  0  0  0  0  0  0  0  0  0  0  0
   30.0730  -24.2528    1.6012 N   0  0  0  0  0  0  0  0  0  0  0  0
   30.3659  -24.4135   -0.0258 S   0  0  0  0  0  0  0  0  0  0  0  0
   29.3952  -23.3711   -0.9063 N   0  0  0  0  0  0  0  0  0  0  0  0
   29.6257  -21.7415   -0.5599 S   0  0  0  0  0  0  0  0  0  0  0  0
   31.2072  -21.2435   -0.8418 N   0  0  0  0  0  0  0  0  0  0  0  0
   31.4325  -19.6172   -0.4719 S   0  0  0  0  0  0  0  0  0  0  0  0
   31.1583  -19.3436    1.1551 N   0  0  0  0  0  0  0  0  0  0  0  0
   32.0246  -20.1091    1.9986 N   0  0  0  0  0  0  0  0  0  0  0  0
   33.4035  -19.7934    1.7814 N   0  0  0  0  0  0  0  0  0  0  0  0
   33.6355  -18.4020    2.0633 N   0  0  0  0  0  0  0  0  0  0  0  0
   33.3031  -18.1368    3.4406 N   0  0  0  0  0  0  0  0  0  0  0  0
   34.1274  -18.9684    4.2876 N   0  0  0  0  0  0  0  0  0  0  0  0
   35.5154  -18.6719    4.0334 N   0  0  0  0  0  0  0  0  0  0  0  0
   35.7553  -17.2845    4.3000 N   0  0  0  0  0  0  0  0  0  0  0  0
   35.4300  -16.9979    5.6604 N   0  0  0  0  0  0  0  0  0  0  0  0
   36.2254  -17.8041    6.5207 N   0  0  0  0  0  0  0  0  0  0  0  0
   37.6044  -17.5392    6.2899 N   0  0  0  0  0  0  0  0  0  0  0  0
   37.8765  -16.1618    6.5344 N   0  0  0  0  0  0  0  0  0  0  0  0
   37.5537  -15.8446    7.8819 N   0  0  0  0  0  0  0  0  0  0  0  0
   38.3272  -16.6482    8.7554 N   0  0  0  0  0  0  0  0  0  0  0  0
   39.7065  -16.4042    8.5233 N   0  0  0  0  0  0  0  0  0  0  0  0
   40.0038  -15.0268    8.7638 N   0  0  0  0  0  0  0  0  0  0  0  0
   39.6789  -14.6894   10.1170 N   0  0  0  0  0  0  0  0  0  0  0  0
   40.4549  -15.4914   11.0141 N   0  0  0  0  0  0  0  0  0  0  0  0
   41.8489  -15.2555   10.8037 N   0  0  0  0  0  0  0  0  0  0  0  0
   42.1711  -13.8862   11.0279 N   0  0  0  0  0  0  0  0  0  0  0  0
   41.8523  -13.5121   12.3617 N   0  0  0  0  0  0  0  0  0  0  0  0
   42.5850  -14.3084   13.2919 N   0  0  0  0  0  0  0  0  0  0  0  0
   43.9934  -14.1380   13.0834 N   0  0  0  0  0  0  0  0  0  0  0  0
   44.3382  -12.7498   13.2597 N   0  0  0  0  0  0  0  0  0  0  0  0
   43.9817  -12.3392   14.6033 N   0  0  0  0  0  0  0  0  0  0  0  0
   44.6874  -13.1754   15.5494 N   0  0  0  0  0  0  0  0  0  0  0  0
   46.1001  -13.0196   15.3285 N   0  0  0  0  0  0  0  0  0  0  0  0
   46.4684  -11.6346   15.5016 N   0  0  0  0  0  0  0  0  0  0  0  0
   46.1099  -11.2065   16.8247 N   0  0  0  0  0  0  0  0  0  0  0  0
   46.7939  -12.0312   17.7746 N   0  0  0  0  0  0  0  0  0  0  0  0
   48.1990  -11.9008   17.5495 N   0  0  0  0  0  0  0  0  0  0  0  0
   48.5711  -10.5310   17.7130 N   0  0  0  0  0  0  0  0  0  0  0  0
   48.2388  -10.0882   19.0230 N   0  0  0  0  0  0  0  0  0  0  0  0
   48.9126  -10.8665   19.9877 N   0  0  0  0  0  0  0  0  0  0  0  0
   50.3093  -10.7640   19.7971 N   0  0  0  0  0  0  0  0  0  0  0  0
   50.7038   -9.4068   19.9371 N   0  0  0  0  0  0  0  0  0  0  0  0
   50.3637   -8.9347   21.2418 N   0  0  0  0  0  0  0  0  0  0  0  0
   51.0204   -9.7142   22.2353 N   0  0  0  0  0  0  0  0  0  0  0  0
   52.4296   -9.6401   22.0641 N   0  0  0  0  0  0  0  0  0  0  0  0
   52.8540   -8.2790   22.1800 N   0  0  0  0  0  0  0  0  0  0  0  0
   52.5027   -7.7651   23.4787 N   0  0  0  0  0  0  0  0  0  0  0  0
   53.1219   -8.5521   24.4980 N   0  0  0  0  0  0  0  0  0  0  0  0
   54.5390   -8.5081   24.3251 N   0  0  0  0  0  0  0  0  0  0  0  0
   54.9863   -7.1420   24.4139 N   0  0  0  0  0  0  0  0  0  0  0  0
   54.6159   -6.5975   25.6978 N   0  0  0  0  0  0  0  0  0  0  0  0
   55.2298   -7.3906   26.7401 N   0  0  0  0  0  0  0  0  0  0  0  0
   56.6721   -7.3586   26.5667 N   0  0  0  0  0  0  0  0  0  0  0  0
   57.1117   -5.9826   26.6318 N   0  0  0  0  0  0  0  0  0  0  0  0
   56.7190   -5.4412   27.9188 N   0  0  0  0  0  0  0  0  0  0  0  0
   57.3285   -6.2467   28.9663 N   0  0  0  0  0  0  0  0  0  0  0  0
   58.7706   -6.2283   28.7905 N   0  0  0  0  0  0  0  0  0  0  0  0
   59.2424   -4.8539   28.8636 N   0  0  0  0  0  0  0  0  0  0  0  0
   58.8727   -4.2806   30.1540 N   0  0  0  0  0  0  0  0  0  0  0  0
   59.4667   -5.0733   31.2202 N   0  0  0  0  0  0  0  0  0  0  0  0
   60.9089   -5.0749   31.0597 N   0  0  0  0  0  0  0  0  0  0  0  0
   61.3809   -3.7084   31.1088 N   0  0  0  0  0  0  0  0  0  0  0  0
   61.0083   -3.1303   32.3772 N   0  0  0  0  0  0  0  0  0  0  0  0
   61.5773   -3.9190   33.4372 N   0  0  0  0  0  0  0  0  0  0  0  0
   63.0066   -3.9325   33.2852 N   0  0  0  0  0  0  0  0  0  0  0  0
   63.5002   -2.5809   33.3316 N   0  0  0  0  0  0  0  0  0  0  0  0
   63.1312   -1.9901   34.5839 N   0  0  0  0  0  0  0  0  0  0  0  0
   63.6925   -2.7598   35.6518 N   0  0  0  0  0  0  0  0  0  0  0  0
   65.1192   -2.7870   35.5266 N   0  0  0  0  0  0  0  0  0  0  0  0
   65.6294   -1.4603   35.5632 N   0  0  0  0  0  0  0  0  0  0  0  0
   65.2754   -0.8526   36.7855 N   0  0  0  0  0  0  0  0  0  0  0  0
   27.2819  -18.9282   10.2958 H   0  0  0  0  0  0  0  0  0  0  0  0
   26.8805  -18.4530    8.5432 H   0  0  0  0  0  0  0  0  0  0  0  0
   28.9590  -20.4881    9.4995 H   0  0  0  0  0  0  0  0  0  0  0  0
   29.6913  -19.8117    7.1126 H   0  0  0  0  0  0  0  0  0  0  0  0
   28.0064  -19.4086    6.7409 H   0  0  0  0  0  0  0  0  0  0  0  0
   27.4238  -21.7065    7.0973 H   0  0  0  0  0  0  0  0  0  0  0  0
   29.6334  -21.3840    5.3137 H   0  0  0  0  0  0  0  0  0  0  0  0
   27.4642  -23.1796    5.3235 H   0  0  0  0  0  0  0  0  0  0  0  0
   29.6544  -22.8434    3.5693 H   0  0  0  0  0  0  0  0  0  0  0  0
   27.4948  -24.6482    3.5486 H   0  0  0  0  0  0  0  0  0  0  0  0
   28.0891  -23.9515    1.4471 H   0  0  0  0  0  0  0  0  0  0  0  0
   30.6602  -24.8500    2.1889 H   0  0  0  0  0  0  0  0  0  0  0  0
   28.4098  -23.6355   -0.7638 H   0  0  0  0  0  0  0  0  0  0  0  0
   31.4428  -21.3816   -1.8262 H   0  0  0  0  0  0  0  0  0  0  0  0
   30.1988  -19.5645    1.4271 H   0  0  0  0  0  0  0  0  0  0  0  0
   31.8599  -21.1001    1.8366 H   0  0  0  0  0  0  0  0  0  0  0  0
   33.6122  -19.9963    0.8027 H   0  0  0  0  0  0  0  0  0  0  0  0
   33.0329  -17.8318    1.4625 H   0  0  0  0  0  0  0  0  0  0  0  0
   32.3062  -18.3579    3.6058 H   0  0  0  0  0  0  0  0  0  0  0  0
   33.9237  -19.9659    4.1000 H   0  0  0  0  0  0  0  0  0  0  0  0
   35.7464  -18.8912    3.0562 H   0  0  0  0  0  0  0  0  0  0  0  0
   35.1894  -16.6783    3.7126 H   0  0  0  0  0  0  0  0  0  0  0  0
   34.4573  -17.1864    5.8712 H   0  0  0  0  0  0  0  0  0  0  0  0
   36.0698  -18.7899    6.3664 H   0  0  0  0  0  0  0  0  0  0  0  0
   37.8659  -17.7297    5.3358 H   0  0  0  0  0  0  0  0  0  0  0  0
   37.3221  -15.5616    5.9436 H   0  0  0  0  0  0  0  0  0  0  0  0
   36.5861  -16.0287    8.0885 H   0  0  0  0  0  0  0  0  0  0  0  0
   38.1616  -17.6335    8.6222 H   0  0  0  0  0  0  0  0  0  0  0  0
   39.9802  -16.6248    7.5675 H   0  0  0  0  0  0  0  0  0  0  0  0
   39.4527  -14.4326    8.1387 H   0  0  0  0  0  0  0  0  0  0  0  0
   38.6815  -14.8629   10.2917 H   0  0  0  0  0  0  0  0  0  0  0  0
   40.2613  -16.4861   10.8483 H   0  0  0  0  0  0  0  0  0  0  0  0
   42.0840  -15.4806    9.8408 H   0  0  0  0  0  0  0  0  0  0  0  0
   41.6189  -13.3073   10.4019 H   0  0  0  0  0  0  0  0  0  0  0  0
   40.8613  -13.6818   12.5121 H   0  0  0  0  0  0  0  0  0  0  0  0
   42.3493  -15.2823   13.1024 H   0  0  0  0  0  0  0  0  0  0  0  0
   44.1667  -14.4157   12.1035 H   0  0  0  0  0  0  0  0  0  0  0  0
   43.7659  -12.2335   12.5611 H   0  0  0  0  0  0  0  0  0  0  0  0
   42.9539  -12.5069   14.6735 H   0  0  0  0  0  0  0  0  0  0  0  0
   44.4144  -14.1508   15.3401 H   0  0  0  0  0  0  0  0  0  0  0  0
   46.2976  -13.2943   14.3677 H   0  0  0  0  0  0  0  0  0  0  0  0
   45.9304  -11.0926   14.8301 H   0  0  0  0  0  0  0  0  0  0  0  0
   45.1041  -11.3336   16.9364 H   0  0  0  0  0  0  0  0  0  0  0  0
   46.5175  -13.0084   17.6284 H   0  0  0  0  0  0  0  0  0  0  0  0
   48.4401  -12.2119   16.6008 H   0  0  0  0  0  0  0  0  0  0  0  0
   48.0639   -9.9488   17.0387 H   0  0  0  0  0  0  0  0  0  0  0  0
   47.2418  -10.1727   19.1889 H   0  0  0  0  0  0  0  0  0  0  0  0
   48.6523  -11.8391   19.9016 H   0  0  0  0  0  0  0  0  0  0  0  0
   50.5595  -11.0846   18.8585 H   0  0  0  0  0  0  0  0  0  0  0  0
   50.2109   -8.8390   19.2399 H   0  0  0  0  0  0  0  0  0  0  0  0
   49.3569   -9.0356   21.3811 H   0  0  0  0  0  0  0  0  0  0  0  0
   50.7439  -10.6847   22.1218 H   0  0  0  0  0  0  0  0  0  0  0  0
   52.6430   -9.9889   21.1244 H   0  0  0  0  0  0  0  0  0  0  0  0
   52.3557   -7.7436   21.4538 H   0  0  0  0  0  0  0  0  0  0  0  0
   51.4870   -7.8582   23.5772 H   0  0  0  0  0  0  0  0  0  0  0  0
   52.7952   -9.5195   24.3839 H   0  0  0  0  0  0  0  0  0  0  0  0
   54.7415   -8.8896   23.3867 H   0  0  0  0  0  0  0  0  0  0  0  0
   54.4865   -6.6205   23.6780 H   0  0  0  0  0  0  0  0  0  0  0  0
   53.5876   -6.6702   25.7693 H   0  0  0  0  0  0  0  0  0  0  0  0
   54.8721   -8.3566   26.6049 H   0  0  0  0  0  0  0  0  0  0  0  0
   56.8714   -7.7276   25.6296 H   0  0  0  0  0  0  0  0  0  0  0  0
   56.6326   -5.4696   25.8780 H   0  0  0  0  0  0  0  0  0  0  0  0
   55.6891   -5.4942   27.9864 H   0  0  0  0  0  0  0  0  0  0  0  0
   56.9961   -7.2193   28.8862 H   0  0  0  0  0  0  0  0  0  0  0  0
   58.9996   -6.6378   27.8689 H   0  0  0  0  0  0  0  0  0  0  0  0
   58.8157   -4.2940   28.1137 H   0  0  0  0  0  0  0  0  0  0  0  0
   57.8423   -4.2864   30.2415 H   0  0  0  0  0  0  0  0  0  0  0  0
   59.1127   -6.0417   31.1679 H   0  0  0  0  0  0  0  0  0  0  0  0
   61.1496   -5.4986   30.1477 H   0  0  0  0  0  0  0  0  0  0  0  0
   60.9655   -3.1652   30.3356 H   0  0  0  0  0  0  0  0  0  0  0  0
   59.9894   -3.1156   32.4825 H   0  0  0  0  0  0  0  0  0  0  0  0
   61.2162   -4.8825   33.4081 H   0  0  0  0  0  0  0  0  0  0  0  0
   63.2730   -4.3633   32.3923 H   0  0  0  0  0  0  0  0  0  0  0  0
   63.1078   -2.0107   32.5749 H   0  0  0  0  0  0  0  0  0  0  0  0
   62.1125   -1.9504   34.6908 H   0  0  0  0  0  0  0  0  0  0  0  0
   63.3372   -3.7195   35.6593 H   0  0  0  0  0  0  0  0  0  0  0  0
   65.4137   -3.2235   34.6479 H   0  0  0  0  0  0  0  0  0  0  0  0
   65.2759   -0.8846   34.7889 H   0  0  0  0  0  0  0  0  0  0  0  0
   65.6632   -1.3591   37.5893 H   0  0  0  0  0  0  0  0  0  0  0  0
   64.2672   -0.7900   36.9277 H   0  0  0  0  0  0  0  0  0  0  0  0
  1  2  2  0  0  0  0
  1 81  1  0  0  0  0
  1 82  1  0  0  0  0
  2  3  1  0  0  0  0
  2 83  1  0  0  0  0
  3  4  1  0  0  0  0
  3 84  1  0  0  0  0
  3 85  1  0  0  0  0
  4  5  1  0  0  0  0
  4 86  1  0  0  0  0
  5  6  1  0  0  0  0
  5 87  1  0  0  0  0
  6  7  1  0  0  0  0
  6 88  1  0  0  0  0
  7  8  1  0  0  0  0
  7 89  1  0  0  0  0
  8  9  1  0  0  0  0
  8 90  1  0  0  0  0
  9 10  1  0  0  0  0
  9 91  1  0  0  0  0
 10 11  1  0  0  0  0
 10 92  1  0  0  0  0
 11 12  1  0  0  0  0
 12 13  1  0  0  0  0
 12 93  1  0  0  0  0
 13 14  1  0  0  0  0
 14 15  1  0  0  0  0
 14 94  1  0  0  0  0
 15 16  1  0  0  0  0
 16 17  1  0  0  0  0
 16 95  1  0  0  0  0
 17 18  1  0  0  0  0
 17 96  1  0  0  0  0
 18 19  1  0  0  0  0
 18 97  1  0  0  0  0
 19 20  1  0  0  0  0
 19 98  1  0  0  0  0
 20 21  1  0  0  0  0
 20 99  1  0  0  0  0
 21 22  1  0  0  0  0
 21100  1  0  0  0  0
 22 23  1  0  0  0  0
 22101  1  0  0  0  0
 23 24  1  0  0  0  0
 23102  1  0  0  0  0
 24 25  1  0  0  0  0
 24103  1  0  0  0  0
 25 26  1  0  0  0  0
 25104  1  0  0  0  0
 26 27  1  0  0  0  0
 26105  1  0  0  0  0
 27 28  1  0  0  0  0
 27106  1  0  0  0  0
 28 29  1  0  0  0  0
 28107  1  0  0  0  0
 29 30  1  0  0  0  0
 29108  1  0  0  0  0
 30 31  1  0  0  0  0
 30109  1  0  0  0  0
 31 32  1  0  0  0  0
 31110  1  0  0  0  0
 32 33  1  0  0  0  0
 32111  1  0  0  0  0
 33 34  1  0  0  0  0
 33112  1  0  0  0  0
 34 35  1  0  0  0  0
 34113  1  0  0  0  0
 35 36  1  0  0  0  0
 35114  1  0  0  0  0
 36 37  1  0  0  0  0
 36115  1  0  0  0  0
 37 38  1  0  0  0  0
 37116  1  0  0  0  0
 38 39  1  0  0  0  0
 38117  1  0  0  0  0
 39 40  1  0  0  0  0
 39118  1  0  0  0  0
 40 41  1  0  0  0  0
 40119  1  0  0  0  0
 41 42  1  0  0  0  0
 41120  1  0  0  0  0
 42 43  1  0  0  0  0
 42121  1  0  0  0  0
 43 44  1  0  0  0  0
 43122  1  0  0  0  0
 44 45  1  0  0  0  0
 44123  1  0  0  0  0
 45 46  1  0  0  0  0
 45124  1  0  0  0  0
 46 47  1  0  0  0  0
 46125  1  0  0  0  0
 47 48  1  0  0  0  0
 47126  1  0  0  0  0
 48 49  1  0  0  0  0
 48127  1  0  0  0  0
 49 50  1  0  0  0  0
 49128  1  0  0  0  0
 50 51  1  0  0  0  0
 50129  1  0  0  0  0
 51 52  1  0  0  0  0
 51130  1  0  0  0  0
 52 53  1  0  0  0  0
 52131  1  0  0  0  0
 53 54  1  0  0  0  0
 53132  1  0  0  0  0
 54 55  1  0  0  0  0
 54133  1  0  0  0  0
 55 56  1  0  0  0  0
 55134  1  0  0  0  0
 56 57  1  0  0  0  0
 56135  1  0  0  0  0
 57 58  1  0  0  0  0
 57136  1  0  0  0  0
 58 59  1  0  0  0  0
 58137  1  0  0  0  0
 59 60  1  0  0  0  0
 59138  1  0  0  0  0
 60 61  1  0  0  0  0
 60139  1  0  0  0  0
 61 62  1  0  0  0  0
 61140  1  0  0  0  0
 62 63  1  0  0  0  0
 62141  1  0  0  0  0
 63 64  1  0  0  0  0
 63142  1  0  0  0  0
 64 65  1  0  0  0  0
 64143  1  0  0  0  0
 65 66  1  0  0  0  0
 65144  1  0  0  0  0
 66 67  1  0  0  0  0
 66145  1  0  0  0  0
 67 68  1  0  0  0  0
 67146  1  0  0  0  0
 68 69  1  0  0  0  0
 68147  1  0  0  0  0
 69 70  1  0  0  0  0
 69148  1  0  0  0  0
 70 71  1  0  0  0  0
 70149  1  0  0  0  0
 71 72  1  0  0  0  0
 71150  1  0  0  0  0
 72 73  1  0  0  0  0
 72151  1  0  0  0  0
 73 74  1  0  0  0  0
 73152  1  0  0  0  0
 74 75  1  0  0  0  0
 74153  1  0  0  0  0
 75 76  1  0  0  0  0
 75154  1  0  0  0  0
 76 77  1  0  0  0  0
 76155  1  0  0  0  0
 77 78  1  0  0  0  0
 77156  1  0  0  0  0
 78 79  1  0  0  0  0
 78157  1  0  0  0  0
 79 80  1  0  0  0  0
 79158  1  0  0  0  0
 80159  1  0  0  0  0
 80160  1  0  0  0  0
M  END
$$$$
