
 OpenBabel04232216443D

 76 78  0  0  0  0  0  0  0  0999 V2000
    5.3284    2.3695    0.3344 C   0  0  0  0  0  0  0  0  0  0  0  0
    4.5109    1.1158    0.0972 C   0  0  0  0  0  0  0  0  0  0  0  0
    3.0904    1.0987   -0.0170 C   0  0  0  0  0  0  0  0  0  0  0  0
    2.2867    2.4042    0.0282 C   0  0  0  0  0  0  0  0  0  0  0  0
    1.4901    2.6433   -1.2894 C   0  0  0  0  0  0  0  0  0  0  0  0
    2.0638    3.7822   -2.1562 C   0  0  0  0  0  0  0  0  0  0  0  0
    0.9780    4.8132   -2.4617 C   0  0  0  0  0  0  0  0  0  0  0  0
    1.4749    5.9470   -3.3617 C   0  0  0  0  0  0  0  0  0  0  0  0
    0.5839    7.1866   -3.2150 C   0  0  0  0  0  0  0  0  0  0  0  0
    1.1486    8.1259   -2.1451 C   0  0  0  0  0  0  0  0  0  0  0  0
    0.1658    9.2323   -1.7527 C   0  0  0  0  0  0  0  0  0  0  0  0
    0.5544    9.8858   -0.4199 C   0  0  0  0  0  0  0  0  0  0  0  0
    0.1132    9.0186    0.7630 C   0  0  0  0  0  0  0  0  0  0  0  0
    0.5987    9.5634    2.1085 C   0  0  0  0  0  0  0  0  0  0  0  0
    0.2467    8.6216    3.2680 C   0  0  0  0  0  0  0  0  0  0  0  0
    1.1219    7.3684    3.2659 C   0  0  0  0  0  0  0  0  0  0  0  0
    0.7111    6.3566    4.3396 C   0  0  0  0  0  0  0  0  0  0  0  0
    1.5267    5.0652    4.2010 C   0  0  0  0  0  0  0  0  0  0  0  0
    0.9759    4.1846    3.0796 C   0  0  0  0  0  0  0  0  0  0  0  0
    2.0453    3.3048    2.4355 C   0  0  0  0  0  0  0  0  0  0  0  0
    1.4080    2.4774    1.3059 C   0  0  0  0  0  0  0  0  0  0  0  0
    2.3872   -0.1612   -0.1700 C   0  0  0  0  0  0  0  0  0  0  0  0
    0.9724   -0.3103   -0.2495 C   0  0  0  0  0  0  0  0  0  0  0  0
    0.3384   -1.5488   -0.3731 C   0  0  0  0  0  0  0  0  0  0  0  0
    1.1043   -2.7011   -0.4327 C   0  0  0  0  0  0  0  0  0  0  0  0
    2.4884   -2.6010   -0.3704 C   0  0  0  0  0  0  0  0  0  0  0  0
    3.1352   -1.3549   -0.2424 C   0  0  0  0  0  0  0  0  0  0  0  0
    4.5280   -1.3071   -0.1800 C   0  0  0  0  0  0  0  0  0  0  0  0
    5.2239   -0.1000   -0.0152 C   0  0  0  0  0  0  0  0  0  0  0  0
    6.7290   -0.1435    0.0439 C   0  0  0  0  0  0  0  0  0  0  0  0
    4.7606    3.2758    0.5286 H   0  0  0  0  0  0  0  0  0  0  0  0
    5.9671    2.5717   -0.5319 H   0  0  0  0  0  0  0  0  0  0  0  0
    5.9564    2.2374    1.2228 H   0  0  0  0  0  0  0  0  0  0  0  0
    2.9568    3.2541    0.0913 H   0  0  0  0  0  0  0  0  0  0  0  0
    0.4396    2.8534   -1.0582 H   0  0  0  0  0  0  0  0  0  0  0  0
    1.4804    1.7502   -1.9242 H   0  0  0  0  0  0  0  0  0  0  0  0
    2.4536    3.3637   -3.0924 H   0  0  0  0  0  0  0  0  0  0  0  0
    2.9054    4.2871   -1.6694 H   0  0  0  0  0  0  0  0  0  0  0  0
    0.6065    5.2166   -1.5118 H   0  0  0  0  0  0  0  0  0  0  0  0
    0.1292    4.3204   -2.9533 H   0  0  0  0  0  0  0  0  0  0  0  0
    1.4562    5.6022   -4.4023 H   0  0  0  0  0  0  0  0  0  0  0  0
    2.5167    6.1998   -3.1311 H   0  0  0  0  0  0  0  0  0  0  0  0
   -0.4395    6.8853   -2.9581 H   0  0  0  0  0  0  0  0  0  0  0  0
    0.5301    7.7206   -4.1698 H   0  0  0  0  0  0  0  0  0  0  0  0
    2.0699    8.5871   -2.5241 H   0  0  0  0  0  0  0  0  0  0  0  0
    1.4384    7.5392   -1.2675 H   0  0  0  0  0  0  0  0  0  0  0  0
   -0.8538    8.8351   -1.6798 H   0  0  0  0  0  0  0  0  0  0  0  0
    0.1558    9.9930   -2.5418 H   0  0  0  0  0  0  0  0  0  0  0  0
    0.0726   10.8666   -0.3428 H   0  0  0  0  0  0  0  0  0  0  0  0
    1.6383   10.0538   -0.3882 H   0  0  0  0  0  0  0  0  0  0  0  0
    0.4797    7.9999    0.6188 H   0  0  0  0  0  0  0  0  0  0  0  0
   -0.9821    8.9552    0.7750 H   0  0  0  0  0  0  0  0  0  0  0  0
    0.1322   10.5390    2.2876 H   0  0  0  0  0  0  0  0  0  0  0  0
    1.6832    9.7256    2.0824 H   0  0  0  0  0  0  0  0  0  0  0  0
   -0.8130    8.3453    3.2108 H   0  0  0  0  0  0  0  0  0  0  0  0
    0.3896    9.1529    4.2164 H   0  0  0  0  0  0  0  0  0  0  0  0
    2.1684    7.6579    3.4254 H   0  0  0  0  0  0  0  0  0  0  0  0
    1.0834    6.8887    2.2847 H   0  0  0  0  0  0  0  0  0  0  0  0
   -0.3601    6.1308    4.2642 H   0  0  0  0  0  0  0  0  0  0  0  0
    0.8820    6.7918    5.3306 H   0  0  0  0  0  0  0  0  0  0  0  0
    1.4836    4.5037    5.1409 H   0  0  0  0  0  0  0  0  0  0  0  0
    2.5805    5.3137    4.0279 H   0  0  0  0  0  0  0  0  0  0  0  0
    0.5301    4.8018    2.2907 H   0  0  0  0  0  0  0  0  0  0  0  0
    0.1652    3.5602    3.4756 H   0  0  0  0  0  0  0  0  0  0  0  0
    2.4945    2.6377    3.1808 H   0  0  0  0  0  0  0  0  0  0  0  0
    2.8475    3.9493    2.0598 H   0  0  0  0  0  0  0  0  0  0  0  0
    0.4320    2.9042    1.0507 H   0  0  0  0  0  0  0  0  0  0  0  0
    1.1972    1.4870    1.7253 H   0  0  0  0  0  0  0  0  0  0  0  0
    0.3174    0.5534   -0.2024 H   0  0  0  0  0  0  0  0  0  0  0  0
   -0.7449   -1.6048   -0.4197 H   0  0  0  0  0  0  0  0  0  0  0  0
    0.6234   -3.6713   -0.5179 H   0  0  0  0  0  0  0  0  0  0  0  0
    3.0752   -3.5173   -0.4114 H   0  0  0  0  0  0  0  0  0  0  0  0
    5.0968   -2.2330   -0.2509 H   0  0  0  0  0  0  0  0  0  0  0  0
    7.1112   -1.1601   -0.1007 H   0  0  0  0  0  0  0  0  0  0  0  0
    7.0857    0.2023    1.0193 H   0  0  0  0  0  0  0  0  0  0  0  0
    7.1624    0.4773   -0.7484 H   0  0  0  0  0  0  0  0  0  0  0  0
  1  2  1  0  0  0  0
  1 31  1  0  0  0  0
  1 32  1  0  0  0  0
  1 33  1  0  0  0  0
  2  3  1  0  0  0  0
  2 29  2  0  0  0  0
  3  4  1  0  0  0  0
  3 22  2  0  0  0  0
  4  5  1  0  0  0  0
  4 21  1  0  0  0  0
  4 34  1  0  0  0  0
  5  6  1  0  0  0  0
  5 35  1  0  0  0  0
  5 36  1  0  0  0  0
  6  7  1  0  0  0  0
  6 37  1  0  0  0  0
  6 38  1  0  0  0  0
  7  8  1  0  0  0  0
  7 39  1  0  0  0  0
  7 40  1  0  0  0  0
  8  9  1  0  0  0  0
  8 41  1  0  0  0  0
  8 42  1  0  0  0  0
  9 10  1  0  0  0  0
  9 43  1  0  0  0  0
  9 44  1  0  0  0  0
 10 11  1  0  0  0  0
 10 45  1  0  0  0  0
 10 46  1  0  0  0  0
 11 12  1  0  0  0  0
 11 47  1  0  0  0  0
 11 48  1  0  0  0  0
 12 13  1  0  0  0  0
 12 49  1  0  0  0  0
 12 50  1  0  0  0  0
 13 14  1  0  0  0  0
 13 51  1  0  0  0  0
 13 52  1  0  0  0  0
 14 15  1  0  0  0  0
 14 53  1  0  0  0  0
 14 54  1  0  0  0  0
 15 16  1  0  0  0  0
 15 55  1  0  0  0  0
 15 56  1  0  0  0  0
 16 17  1  0  0  0  0
 16 57  1  0  0  0  0
 16 58  1  0  0  0  0
 17 18  1  0  0  0  0
 17 59  1  0  0  0  0
 17 60  1  0  0  0  0
 18 19  1  0  0  0  0
 18 61  1  0  0  0  0
 18 62  1  0  0  0  0
 19 20  1  0  0  0  0
 19 63  1  0  0  0  0
 19 64  1  0  0  0  0
 20 21  1  0  0  0  0
 20 65  1  0  0  0  0
 20 66  1  0  0  0  0
 21 67  1  0  0  0  0
 21 68  1  0  0  0  0
 22 23  1  0  0  0  0
 22 27  1  0  0  0  0
 23 24  2  0  0  0  0
 23 69  1  0  0  0  0
 24 25  1  0  0  0  0
 24 70  1  0  0  0  0
 25 26  2  0  0  0  0
 25 71  1  0  0  0  0
 26 27  1  0  0  0  0
 26 72  1  0  0  0  0
 27 28  2  0  0  0  0
 28 29  1  0  0  0  0
 28 73  1  0  0  0  0
 29 30  1  0  0  0  0
 30 74  1  0  0  0  0
 30 75  1  0  0  0  0
 30 76  1  0  0  0  0
M  END
$$$$
