
 OpenBabel04232216463D

 46 47  0  0  1  0  0  0  0  0999 V2000
    6.3823    1.6908   -0.9315 C   0  0  0  0  0  0  0  0  0  0  0  0
    7.0681    0.4400   -1.4573 C   0  0  0  0  0  0  0  0  0  0  0  0
    6.0278   -0.4156   -1.6322 C   0  0  0  0  0  0  0  0  0  0  0  0
    6.4181   -1.7286   -1.5663 C   0  0  0  0  0  0  0  0  0  0  0  0
    6.1528   -2.3855   -0.3154 N   0  0  0  0  0  0  0  0  0  0  0  0
    6.7517   -1.9071    0.9485 C   0  0  0  0  0  0  0  0  0  0  0  0
    5.3100   -1.6366    0.6882 C   0  0  3  0  0  0  0  0  0  0  0  0
    4.1603   -2.3598    1.2910 C   0  0  0  0  0  0  0  0  0  0  0  0
    6.9565   -2.2238   -2.6441 N   0  0  0  0  0  0  0  0  0  0  0  0
    7.2016   -1.5287   -3.8490 C   0  0  0  0  0  0  0  0  0  0  0  0
    7.6430   -2.1991   -4.7887 O   0  0  0  0  0  0  0  0  0  0  0  0
    6.7815   -0.0529   -4.1424 N   0  0  0  0  0  0  0  0  0  0  0  0
    5.8946   -0.2316   -5.2844 C   0  0  0  0  0  0  0  0  0  0  0  0
    7.7158    1.1012   -4.3704 C   0  0  0  0  0  0  0  0  0  0  0  0
    8.2156    2.1594   -3.2837 C   0  0  0  0  0  0  0  0  0  0  0  0
    8.7019    0.9972   -5.2942 C   0  0  0  0  0  0  0  0  0  0  0  0
    8.5269    0.7741   -6.7553 C   0  0  0  0  0  0  0  0  0  0  0  0
    9.9912    0.6784   -4.6267 C   0  0  0  0  0  0  0  0  0  0  0  0
    9.7681   -0.3527   -3.7748 C   0  0  0  0  0  0  0  0  0  0  0  0
    9.4109   -0.3868   -2.2091 C   0  0  0  0  0  0  0  0  0  0  0  0
   10.5064   -1.2848   -1.6837 C   0  0  0  0  0  0  0  0  0  0  0  0
    8.4524    0.0024   -1.3496 N   0  0  0  0  0  0  0  0  0  0  0  0
    5.8429    2.1997   -1.7513 H   0  0  0  0  0  0  0  0  0  0  0  0
    7.0253    2.3767   -0.3972 H   0  0  0  0  0  0  0  0  0  0  0  0
    5.5555    1.4306   -0.2494 H   0  0  0  0  0  0  0  0  0  0  0  0
    4.9875   -0.1679   -1.7209 H   0  0  0  0  0  0  0  0  0  0  0  0
    7.4073   -1.0406    0.9370 H   0  0  0  0  0  0  0  0  0  0  0  0
    7.0354   -2.6944    1.6298 H   0  0  0  0  0  0  0  0  0  0  0  0
    5.1113   -0.5644    0.6621 H   0  0  0  0  0  0  0  0  0  0  0  0
    4.1188   -3.3903    0.9315 H   0  0  0  0  0  0  0  0  0  0  0  0
    3.2256   -1.8681    0.9831 H   0  0  0  0  0  0  0  0  0  0  0  0
    4.1789   -2.3590    2.3868 H   0  0  0  0  0  0  0  0  0  0  0  0
    5.0090   -0.7723   -4.9393 H   0  0  0  0  0  0  0  0  0  0  0  0
    6.3646   -0.8337   -6.0710 H   0  0  0  0  0  0  0  0  0  0  0  0
    5.6002    0.7355   -5.6871 H   0  0  0  0  0  0  0  0  0  0  0  0
    7.5129    2.5541   -2.5841 H   0  0  0  0  0  0  0  0  0  0  0  0
    8.5470    3.0778   -3.7903 H   0  0  0  0  0  0  0  0  0  0  0  0
    9.1127    1.8989   -2.6997 H   0  0  0  0  0  0  0  0  0  0  0  0
    7.4967    0.9888   -7.0679 H   0  0  0  0  0  0  0  0  0  0  0  0
    8.7836   -0.2463   -7.0377 H   0  0  0  0  0  0  0  0  0  0  0  0
    9.1484    1.4802   -7.3192 H   0  0  0  0  0  0  0  0  0  0  0  0
   10.4701    1.5955   -4.2974 H   0  0  0  0  0  0  0  0  0  0  0  0
    9.5935   -1.3105   -4.2635 H   0  0  0  0  0  0  0  0  0  0  0  0
   10.5540   -1.2717   -0.6054 H   0  0  0  0  0  0  0  0  0  0  0  0
   11.4773   -0.9793   -2.1206 H   0  0  0  0  0  0  0  0  0  0  0  0
   10.3096   -2.3073   -2.0545 H   0  0  0  0  0  0  0  0  0  0  0  0
  1  2  1  0  0  0  0
  1 23  1  0  0  0  0
  1 24  1  0  0  0  0
  1 25  1  0  0  0  0
  2  3  2  3  0  0  0
  2 22  1  0  0  0  0
  3  4  1  0  0  0  0
  3 26  1  0  0  0  0
  4  5  1  0  0  0  0
  4  9  2  3  0  0  0
  5  6  1  0  0  0  0
  5  7  1  0  0  0  0
  6  7  1  0  0  0  0
  6 27  1  0  0  0  0
  6 28  1  0  0  0  0
  7  8  1  0  0  0  0
  7 29  1  0  0  0  0
  8 30  1  0  0  0  0
  8 31  1  0  0  0  0
  8 32  1  0  0  0  0
  9 10  1  0  0  0  0
 10 11  2  0  0  0  0
 10 12  1  0  0  0  0
 12 13  1  0  0  0  0
 12 14  1  0  0  0  0
 13 33  1  0  0  0  0
 13 34  1  0  0  0  0
 13 35  1  0  0  0  0
 14 15  1  0  0  0  0
 14 16  2  3  0  0  0
 15 36  1  0  0  0  0
 15 37  1  0  0  0  0
 15 38  1  0  0  0  0
 16 17  1  0  0  0  0
 16 18  1  0  0  0  0
 17 39  1  0  0  0  0
 17 40  1  0  0  0  0
 17 41  1  0  0  0  0
 18 19  2  3  0  0  0
 18 42  1  0  0  0  0
 19 20  1  0  0  0  0
 19 43  1  0  0  0  0
 20 21  1  0  0  0  0
 20 22  2  3  0  0  0
 21 44  1  0  0  0  0
 21 45  1  0  0  0  0
 21 46  1  0  0  0  0
M  END
$$$$
