
 OpenBabel04232216553D

 51 53  0  0  0  0  0  0  0  0999 V2000
   14.8700   -7.9430    4.5934 C   0  0  0  0  0  0  0  0  0  0  0  0
   13.6500   -7.9115    3.7768 N   0  0  0  0  0  0  0  0  0  0  0  0
   13.8562   -8.5325    2.4925 C   0  0  0  0  0  0  0  0  0  0  0  0
   15.0467   -8.9952    1.6865 C   0  0  0  0  0  0  0  0  0  0  0  0
   12.7497   -8.8356    1.8216 C   0  0  0  0  0  0  0  0  0  0  0  0
   12.2185  -10.0118    2.7110 C   0  0  0  0  0  0  0  0  0  0  0  0
   12.5769   -7.3108    1.4550 C   0  0  0  0  0  0  0  0  0  0  0  0
   11.4864   -6.7601    1.9712 C   0  0  0  0  0  0  0  0  0  0  0  0
   11.9123   -5.5352    2.8439 C   0  0  0  0  0  0  0  0  0  0  0  0
   10.5185   -7.1157    1.0045 C   0  0  0  0  0  0  0  0  0  0  0  0
    9.3692   -8.0264    1.4102 C   0  0  0  0  0  0  0  0  0  0  0  0
    8.5092   -7.4656    2.5024 C   0  0  0  0  0  0  0  0  0  0  0  0
    9.2862   -6.6895    3.5612 C   0  0  0  0  0  0  0  0  0  0  0  0
   10.5350   -7.2155    4.5130 C   0  0  0  0  0  0  0  0  0  0  0  0
   12.1788   -7.8527    4.6593 C   0  0  0  0  0  0  0  0  0  0  0  0
   10.9445   -7.5012   -0.3627 C   0  0  0  0  0  0  0  0  0  0  0  0
   12.2997   -7.3709   -0.7012 C   0  0  0  0  0  0  0  0  0  0  0  0
   12.8876   -6.6424    0.2378 C   0  0  0  0  0  0  0  0  0  0  0  0
   12.3522   -5.0286    0.0891 C   0  0  0  0  0  0  0  0  0  0  0  0
   11.2155   -4.5038   -0.4719 C   0  0  0  0  0  0  0  0  0  0  0  0
   10.5149   -5.0624   -1.6103 C   0  0  0  0  0  0  0  0  0  0  0  0
    9.4675   -5.8944   -1.5203 C   0  0  0  0  0  0  0  0  0  0  0  0
   10.0072   -7.2684   -1.4949 C   0  0  0  0  0  0  0  0  0  0  0  0
    9.7597   -8.1762   -2.2290 O   0  0  0  0  0  0  0  0  0  0  0  0
   15.7628   -7.9923    3.9521 H   0  0  0  0  0  0  0  0  0  0  0  0
   14.8877   -8.8372    5.2223 H   0  0  0  0  0  0  0  0  0  0  0  0
   14.9773   -7.0310    5.1773 H   0  0  0  0  0  0  0  0  0  0  0  0
   15.8361   -9.4774    2.2655 H   0  0  0  0  0  0  0  0  0  0  0  0
   15.4497   -8.1982    1.0481 H   0  0  0  0  0  0  0  0  0  0  0  0
   14.7398   -9.7783    0.9498 H   0  0  0  0  0  0  0  0  0  0  0  0
   12.6822  -10.9586    2.3786 H   0  0  0  0  0  0  0  0  0  0  0  0
   11.1538  -10.1628    2.8535 H   0  0  0  0  0  0  0  0  0  0  0  0
   12.6382  -10.0350    3.7406 H   0  0  0  0  0  0  0  0  0  0  0  0
   12.4850   -5.8428    3.7243 H   0  0  0  0  0  0  0  0  0  0  0  0
   11.1371   -4.8790    3.2271 H   0  0  0  0  0  0  0  0  0  0  0  0
   12.7024   -4.8981    2.4516 H   0  0  0  0  0  0  0  0  0  0  0  0
    8.7389   -8.2405    0.5337 H   0  0  0  0  0  0  0  0  0  0  0  0
    9.7868   -8.9955    1.7065 H   0  0  0  0  0  0  0  0  0  0  0  0
    7.9022   -8.2779    2.9137 H   0  0  0  0  0  0  0  0  0  0  0  0
    7.7934   -6.7944    1.9957 H   0  0  0  0  0  0  0  0  0  0  0  0
    9.4859   -5.7177    3.0956 H   0  0  0  0  0  0  0  0  0  0  0  0
    8.4870   -6.3880    4.2578 H   0  0  0  0  0  0  0  0  0  0  0  0
   10.6385   -6.2931    5.1129 H   0  0  0  0  0  0  0  0  0  0  0  0
    9.9822   -7.8931    5.1774 H   0  0  0  0  0  0  0  0  0  0  0  0
   12.0455   -8.8312    5.1257 H   0  0  0  0  0  0  0  0  0  0  0  0
   12.5227   -7.2200    5.4909 H   0  0  0  0  0  0  0  0  0  0  0  0
   12.8022   -7.8089   -1.5463 H   0  0  0  0  0  0  0  0  0  0  0  0
   12.8465   -4.3516    0.7806 H   0  0  0  0  0  0  0  0  0  0  0  0
   10.8062   -3.5544   -0.1064 H   0  0  0  0  0  0  0  0  0  0  0  0
   11.2617   -5.2632   -2.4044 H   0  0  0  0  0  0  0  0  0  0  0  0
    8.6995   -5.8196   -0.7646 H   0  0  0  0  0  0  0  0  0  0  0  0
  1  2  1  0  0  0  0
  1 25  1  0  0  0  0
  1 26  1  0  0  0  0
  1 27  1  0  0  0  0
  2  3  1  0  0  0  0
  2 15  1  0  0  0  0
  3  4  1  0  0  0  0
  3  5  2  3  0  0  0
  4 28  1  0  0  0  0
  4 29  1  0  0  0  0
  4 30  1  0  0  0  0
  5  6  1  0  0  0  0
  5  7  1  0  0  0  0
  6 31  1  0  0  0  0
  6 32  1  0  0  0  0
  6 33  1  0  0  0  0
  7  8  1  0  0  0  0
  7 18  2  0  0  0  0
  8  9  1  0  0  0  0
  8 10  2  0  0  0  0
  9 34  1  0  0  0  0
  9 35  1  0  0  0  0
  9 36  1  0  0  0  0
 10 11  1  0  0  0  0
 10 16  1  0  0  0  0
 11 12  1  0  0  0  0
 11 37  1  0  0  0  0
 11 38  1  0  0  0  0
 12 13  1  0  0  0  0
 12 39  1  0  0  0  0
 12 40  1  0  0  0  0
 13 14  1  0  0  0  0
 13 41  1  0  0  0  0
 13 42  1  0  0  0  0
 14 15  1  0  0  0  0
 14 43  1  0  0  0  0
 14 44  1  0  0  0  0
 15 45  1  0  0  0  0
 15 46  1  0  0  0  0
 16 17  2  0  0  0  0
 16 23  1  0  0  0  0
 17 18  1  0  0  0  0
 17 47  1  0  0  0  0
 18 19  1  0  0  0  0
 19 20  2  0  0  0  0
 19 48  1  0  0  0  0
 20 21  1  0  0  0  0
 20 49  1  0  0  0  0
 21 22  2  0  0  0  0
 21 50  1  0  0  0  0
 22 23  1  0  0  0  0
 22 51  1  0  0  0  0
 23 24  2  0  0  0  0
M  END
$$$$
