
 OpenBabel04232216533D

190189  0  0  0  0  0  0  0  0999 V2000
    7.5027   34.0517    4.4448 C   0  0  0  0  0  0  0  0  0  0  0  0
    9.0136   33.9386    4.3948 C   0  0  0  0  0  0  0  0  0  0  0  0
    9.4293   32.8048    3.4681 C   0  0  0  0  0  0  0  0  0  0  0  0
   10.9447   32.6890    3.4185 C   0  0  0  0  0  0  0  0  0  0  0  0
   11.3568   31.5565    2.4928 C   0  0  0  0  0  0  0  0  0  0  0  0
   12.8739   31.4420    2.4448 C   0  0  0  0  0  0  0  0  0  0  0  0
   13.2754   30.3061    1.5191 C   0  0  0  0  0  0  0  0  0  0  0  0
   14.7284   30.2055    1.4781 N   0  0  0  0  0  0  0  0  0  0  0  0
   15.1114   29.1163    0.5895 C   0  0  0  0  0  0  0  0  0  0  0  0
   16.6258   29.0098    0.5470 C   0  0  0  0  0  0  0  0  0  0  0  0
   17.0345   27.8755   -0.3806 C   0  0  0  0  0  0  0  0  0  0  0  0
   18.5471   27.7617   -0.4313 C   0  0  0  0  0  0  0  0  0  0  0  0
   18.9529   26.6278   -1.3557 C   0  0  0  0  0  0  0  0  0  0  0  0
   20.4658   26.5189   -1.4049 C   0  0  0  0  0  0  0  0  0  0  0  0
   20.8734   25.3855   -2.3287 C   0  0  0  0  0  0  0  0  0  0  0  0
   22.3919   25.2833   -2.3690 C   0  0  0  0  0  0  0  0  0  0  0  0
   22.7779   24.1747   -3.3396 C   0  0  0  0  0  0  0  0  0  0  0  0
   24.2881   24.0716   -3.3341 C   0  0  0  0  0  0  0  0  0  0  0  0
   24.6155   22.9456   -4.2518 C   0  0  0  0  0  0  0  0  0  0  0  0
   26.1904   22.8130   -4.3144 C   0  0  0  0  0  0  0  0  0  0  0  0
   26.6173   21.6699   -5.2529 C   0  0  0  0  0  0  0  0  0  0  0  0
   28.1453   21.5591   -5.2952 C   0  0  0  0  0  0  0  0  0  0  0  0
   28.5263   20.4088   -6.2323 C   0  0  0  0  0  0  0  0  0  0  0  0
   30.0159   20.2739   -6.3553 C   0  0  0  0  0  0  0  0  0  0  0  0
   30.3621   19.1223   -7.3073 C   0  0  0  0  0  0  0  0  0  0  0  0
   31.8964   19.0264   -7.2891 C   0  0  0  0  0  0  0  0  0  0  0  0
   32.3260   17.8304   -8.1050 C   0  0  0  0  0  0  0  0  0  0  0  0
   34.0013   17.1737   -8.0607 S   0  0  0  0  0  0  0  0  0  0  0  0
   34.6731   17.3739   -6.3756 C   0  0  0  0  0  0  0  0  0  0  0  0
   36.5721   16.9353   -6.2788 S   0  0  0  0  0  0  0  0  0  0  0  0
   37.5310   18.4891   -6.6324 C   0  0  0  0  0  0  0  0  0  0  0  0
   37.3024   19.7157   -5.1722 S   0  0  0  0  0  0  0  0  0  0  0  0
   37.6213   21.4737   -6.0407 C   0  0  0  0  0  0  0  0  0  0  0  0
   37.2000   21.8110   -8.2513 S   0  0  0  0  0  0  0  0  0  0  0  0
   36.9087   23.3805   -9.0235 C   0  0  0  0  0  0  0  0  0  0  0  0
   38.6325   23.3873   -8.7509 S   0  0  0  0  0  0  0  0  0  0  0  0
   39.1491   22.2376  -10.0888 C   0  0  0  0  0  0  0  0  0  0  0  0
   38.3818   22.6694  -11.6765 S   0  0  0  0  0  0  0  0  0  0  0  0
   38.8986   21.3383  -12.6703 C   0  0  0  0  0  0  0  0  0  0  0  0
   38.1904   19.8081  -12.0816 S   0  0  0  0  0  0  0  0  0  0  0  0
   36.3847   20.2089  -11.9888 C   0  0  0  0  0  0  0  0  0  0  0  0
   35.5899   18.6359  -11.4760 S   0  0  0  0  0  0  0  0  0  0  0  0
   36.1742   18.6364   -9.7513 C   0  0  0  0  0  0  0  0  0  0  0  0
   34.9687   19.9536   -8.9944 S   0  0  0  0  0  0  0  0  0  0  0  0
   35.6002   20.2690   -7.2953 C   0  0  0  0  0  0  0  0  0  0  0  0
   34.7298   21.9342   -6.3304 S   0  0  0  0  0  0  0  0  0  0  0  0
   36.0568   23.5419   -6.2314 C   0  0  0  0  0  0  0  0  0  0  0  0
   35.6562   25.1613   -5.8042 S   0  0  0  0  0  0  0  0  0  0  0  0
   36.6157   26.0957   -7.2590 C   0  0  0  0  0  0  0  0  0  0  0  0
   35.7868   26.3029   -8.8486 S   0  0  0  0  0  0  0  0  0  0  0  0
   37.0716   27.1852  -10.1073 C   0  0  0  0  0  0  0  0  0  0  0  0
   38.7806   26.8330  -10.2314 S   0  0  0  0  0  0  0  0  0  0  0  0
   39.2753   25.3021  -10.8198 C   0  0  0  0  0  0  0  0  0  0  0  0
   41.0150   24.5981  -10.6021 S   0  0  0  0  0  0  0  0  0  0  0  0
   41.4077   24.3934   -8.7020 C   0  0  0  0  0  0  0  0  0  0  0  0
   41.2670   22.8706   -7.7721 S   0  0  0  0  0  0  0  0  0  0  0  0
   40.8951   23.3349   -6.0758 C   0  0  0  0  0  0  0  0  0  0  0  0
   40.3942   24.8081   -5.1637 S   0  0  0  0  0  0  0  0  0  0  0  0
   38.7887   25.2747   -5.5641 C   0  0  0  0  0  0  0  0  0  0  0  0
   38.3253   27.0312   -5.0229 S   0  0  0  0  0  0  0  0  0  0  0  0
   39.1099   28.2327   -6.1985 C   0  0  0  0  0  0  0  0  0  0  0  0
   38.4875   28.4806   -7.7866 S   0  0  0  0  0  0  0  0  0  0  0  0
   39.7086   29.1760   -8.9012 C   0  0  0  0  0  0  0  0  0  0  0  0
   41.4204   28.8253   -9.1867 S   0  0  0  0  0  0  0  0  0  0  0  0
   41.6430   27.1254   -9.2643 C   0  0  0  0  0  0  0  0  0  0  0  0
   43.2871   26.5734   -8.8048 S   0  0  0  0  0  0  0  0  0  0  0  0
   43.3704   26.6263   -6.9715 C   0  0  0  0  0  0  0  0  0  0  0  0
   43.2305   25.1894   -6.0606 S   0  0  0  0  0  0  0  0  0  0  0  0
   43.0117   25.7870   -4.3848 C   0  0  0  0  0  0  0  0  0  0  0  0
   42.8099   27.4849   -3.8215 S   0  0  0  0  0  0  0  0  0  0  0  0
   41.0958   27.7915   -4.2379 C   0  0  0  0  0  0  0  0  0  0  0  0
   40.6519   29.5810   -3.9132 S   0  0  0  0  0  0  0  0  0  0  0  0
   41.6766   30.5392   -5.0884 C   0  0  0  0  0  0  0  0  0  0  0  0
   41.1657   30.6258   -6.7509 S   0  0  0  0  0  0  0  0  0  0  0  0
   42.5091   31.1551   -7.8588 C   0  0  0  0  0  0  0  0  0  0  0  0
   44.2524   30.7857   -7.4818 S   0  0  0  0  0  0  0  0  0  0  0  0
   44.4064   29.0246   -7.9374 C   0  0  0  0  0  0  0  0  0  0  0  0
   46.0642   28.2538   -7.2805 S   0  0  0  0  0  0  0  0  0  0  0  0
   46.2060   26.2798   -7.7865 C   0  0  0  0  0  0  0  0  0  0  0  0
   46.2885   26.0733   -9.5892 S   0  0  0  0  0  0  0  0  0  0  0  0
   45.8177   24.3129   -9.7259 C   0  0  0  0  0  0  0  0  0  0  0  0
    7.2035   34.8661    5.1105 H   0  0  0  0  0  0  0  0  0  0  0  0
    7.0580   33.1227    4.8148 H   0  0  0  0  0  0  0  0  0  0  0  0
    7.0973   34.2538    3.4486 H   0  0  0  0  0  0  0  0  0  0  0  0
    9.4031   33.7579    5.4037 H   0  0  0  0  0  0  0  0  0  0  0  0
    9.4425   34.8844    4.0430 H   0  0  0  0  0  0  0  0  0  0  0  0
    9.0387   32.9847    2.4589 H   0  0  0  0  0  0  0  0  0  0  0  0
    8.9972   31.8590    3.8176 H   0  0  0  0  0  0  0  0  0  0  0  0
   11.3370   32.5056    4.4260 H   0  0  0  0  0  0  0  0  0  0  0  0
   11.3787   33.6324    3.0661 H   0  0  0  0  0  0  0  0  0  0  0  0
   10.9644   31.7377    1.4844 H   0  0  0  0  0  0  0  0  0  0  0  0
   10.9229   30.6119    2.8437 H   0  0  0  0  0  0  0  0  0  0  0  0
   13.2625   31.2630    3.4553 H   0  0  0  0  0  0  0  0  0  0  0  0
   13.3053   32.3872    2.0916 H   0  0  0  0  0  0  0  0  0  0  0  0
   12.8845   30.5009    0.5131 H   0  0  0  0  0  0  0  0  0  0  0  0
   12.8396   29.3661    1.8786 H   0  0  0  0  0  0  0  0  0  0  0  0
   15.0895   30.0299    2.4157 H   0  0  0  0  0  0  0  0  0  0  0  0
   14.7314   29.3056   -0.4216 H   0  0  0  0  0  0  0  0  0  0  0  0
   14.6853   28.1695    0.9427 H   0  0  0  0  0  0  0  0  0  0  0  0
   17.0225   28.8240    1.5530 H   0  0  0  0  0  0  0  0  0  0  0  0
   17.0618   29.9524    0.1926 H   0  0  0  0  0  0  0  0  0  0  0  0
   16.6414   28.0559   -1.3889 H   0  0  0  0  0  0  0  0  0  0  0  0
   16.6023   26.9304   -0.0292 H   0  0  0  0  0  0  0  0  0  0  0  0
   18.9420   27.5801    0.5757 H   0  0  0  0  0  0  0  0  0  0  0  0
   18.9808   28.7045   -0.7862 H   0  0  0  0  0  0  0  0  0  0  0  0
   18.5587   26.8069   -2.3636 H   0  0  0  0  0  0  0  0  0  0  0  0
   18.5220   25.6833   -1.0014 H   0  0  0  0  0  0  0  0  0  0  0  0
   20.8607   26.3391   -0.3976 H   0  0  0  0  0  0  0  0  0  0  0  0
   20.8972   27.4627   -1.7599 H   0  0  0  0  0  0  0  0  0  0  0  0
   20.4763   25.5641   -3.3355 H   0  0  0  0  0  0  0  0  0  0  0  0
   20.4421   24.4414   -1.9734 H   0  0  0  0  0  0  0  0  0  0  0  0
   22.7809   25.0991   -1.3710 H   0  0  0  0  0  0  0  0  0  0  0  0
   22.8145   26.2231   -2.7322 H   0  0  0  0  0  0  0  0  0  0  0  0
   22.3920   24.3265   -4.3115 H   0  0  0  0  0  0  0  0  0  0  0  0
   22.3575   23.1992   -2.9518 H   0  0  0  0  0  0  0  0  0  0  0  0
   24.6955   23.8628   -2.3412 H   0  0  0  0  0  0  0  0  0  0  0  0
   24.7617   25.0047   -3.6639 H   0  0  0  0  0  0  0  0  0  0  0  0
   24.3043   23.0973   -5.2711 H   0  0  0  0  0  0  0  0  0  0  0  0
   24.2591   21.9706   -3.9153 H   0  0  0  0  0  0  0  0  0  0  0  0
   26.5985   22.6157   -3.3251 H   0  0  0  0  0  0  0  0  0  0  0  0
   26.6434   23.7417   -4.6747 H   0  0  0  0  0  0  0  0  0  0  0  0
   26.2371   21.8547   -6.2619 H   0  0  0  0  0  0  0  0  0  0  0  0
   26.1934   20.7313   -4.9110 H   0  0  0  0  0  0  0  0  0  0  0  0
   28.5397   21.3659   -4.2921 H   0  0  0  0  0  0  0  0  0  0  0  0
   28.5936   22.4909   -5.6520 H   0  0  0  0  0  0  0  0  0  0  0  0
   28.0902   20.6125   -7.2141 H   0  0  0  0  0  0  0  0  0  0  0  0
   28.0975   19.4767   -5.8834 H   0  0  0  0  0  0  0  0  0  0  0  0
   30.4432   20.0709   -5.3654 H   0  0  0  0  0  0  0  0  0  0  0  0
   30.4842   21.2153   -6.6850 H   0  0  0  0  0  0  0  0  0  0  0  0
   29.9260   19.2061   -8.3243 H   0  0  0  0  0  0  0  0  0  0  0  0
   29.9341   18.1760   -6.9389 H   0  0  0  0  0  0  0  0  0  0  0  0
   32.2233   18.9232   -6.2541 H   0  0  0  0  0  0  0  0  0  0  0  0
   32.3311   19.9748   -7.6501 H   0  0  0  0  0  0  0  0  0  0  0  0
   32.0586   18.0513   -9.1450 H   0  0  0  0  0  0  0  0  0  0  0  0
   31.7716   16.9507   -7.7980 H   0  0  0  0  0  0  0  0  0  0  0  0
   34.2048   16.5157   -5.9134 H   0  0  0  0  0  0  0  0  0  0  0  0
   34.3634   18.2447   -5.7745 H   0  0  0  0  0  0  0  0  0  0  0  0
   37.2088   18.6636   -7.6663 H   0  0  0  0  0  0  0  0  0  0  0  0
   38.6035   18.5847   -6.8374 H   0  0  0  0  0  0  0  0  0  0  0  0
   38.8289   22.0671   -6.7161 H   0  0  0  0  0  0  0  0  0  0  0  0
   37.2157   22.2102   -5.1410 H   0  0  0  0  0  0  0  0  0  0  0  0
   36.6569   24.2031   -8.4311 H   0  0  0  0  0  0  0  0  0  0  0  0
   36.5054   23.6096  -10.0532 H   0  0  0  0  0  0  0  0  0  0  0  0
   38.8750   21.2518   -9.7198 H   0  0  0  0  0  0  0  0  0  0  0  0
   40.2285   22.1960  -10.0898 H   0  0  0  0  0  0  0  0  0  0  0  0
   39.9914   21.3132  -12.6769 H   0  0  0  0  0  0  0  0  0  0  0  0
   38.5506   21.5760  -13.6722 H   0  0  0  0  0  0  0  0  0  0  0  0
   35.9994   20.4617  -12.9755 H   0  0  0  0  0  0  0  0  0  0  0  0
   36.1191   21.0540  -11.3262 H   0  0  0  0  0  0  0  0  0  0  0  0
   37.2841   18.6956   -9.7164 H   0  0  0  0  0  0  0  0  0  0  0  0
   36.0171   17.6504   -9.3073 H   0  0  0  0  0  0  0  0  0  0  0  0
   36.6527   20.1851   -7.2963 H   0  0  0  0  0  0  0  0  0  0  0  0
   35.3300   19.4786   -6.6463 H   0  0  0  0  0  0  0  0  0  0  0  0
   35.4589   23.8934   -7.0789 H   0  0  0  0  0  0  0  0  0  0  0  0
   37.1276   23.4851   -6.5948 H   0  0  0  0  0  0  0  0  0  0  0  0
   37.6764   25.9268   -7.4913 H   0  0  0  0  0  0  0  0  0  0  0  0
   36.5746   27.0581   -6.7746 H   0  0  0  0  0  0  0  0  0  0  0  0
   36.9354   28.1047   -9.5332 H   0  0  0  0  0  0  0  0  0  0  0  0
   36.6199   27.1444  -10.8898 H   0  0  0  0  0  0  0  0  0  0  0  0
   38.9903   25.3068  -11.8605 H   0  0  0  0  0  0  0  0  0  0  0  0
   38.5156   24.7327  -10.4007 H   0  0  0  0  0  0  0  0  0  0  0  0
   41.1443   25.2011   -8.0293 H   0  0  0  0  0  0  0  0  0  0  0  0
   42.4939   24.3455   -8.7676 H   0  0  0  0  0  0  0  0  0  0  0  0
   41.9279   23.1943   -5.7639 H   0  0  0  0  0  0  0  0  0  0  0  0
   40.3869   22.5436   -5.5780 H   0  0  0  0  0  0  0  0  0  0  0  0
   38.2023   24.5760   -4.9692 H   0  0  0  0  0  0  0  0  0  0  0  0
   38.7772   25.0231   -6.6040 H   0  0  0  0  0  0  0  0  0  0  0  0
   40.1580   28.1462   -6.4054 H   0  0  0  0  0  0  0  0  0  0  0  0
   38.8708   29.2179   -5.7913 H   0  0  0  0  0  0  0  0  0  0  0  0
   39.5712   30.2299   -8.6972 H   0  0  0  0  0  0  0  0  0  0  0  0
   39.3534   29.1447   -9.9273 H   0  0  0  0  0  0  0  0  0  0  0  0
   41.5515   26.9776  -10.3421 H   0  0  0  0  0  0  0  0  0  0  0  0
   40.8340   26.7177   -8.6935 H   0  0  0  0  0  0  0  0  0  0  0  0
   43.1434   27.5093   -6.4080 H   0  0  0  0  0  0  0  0  0  0  0  0
   44.4067   26.6198   -6.7013 H   0  0  0  0  0  0  0  0  0  0  0  0
   43.9892   25.5195   -4.0439 H   0  0  0  0  0  0  0  0  0  0  0  0
   42.3510   25.1343   -3.8162 H   0  0  0  0  0  0  0  0  0  0  0  0
   40.3909   27.2008   -3.6330 H   0  0  0  0  0  0  0  0  0  0  0  0
   41.0299   27.3876   -5.2433 H   0  0  0  0  0  0  0  0  0  0  0  0
   42.7292   30.3174   -4.8980 H   0  0  0  0  0  0  0  0  0  0  0  0
   41.4744   31.5607   -4.8674 H   0  0  0  0  0  0  0  0  0  0  0  0
   42.3581   32.2167   -7.8614 H   0  0  0  0  0  0  0  0  0  0  0  0
   42.3146   30.9465   -8.9340 H   0  0  0  0  0  0  0  0  0  0  0  0
   44.3017   28.8278   -9.0037 H   0  0  0  0  0  0  0  0  0  0  0  0
   43.4821   28.7420   -7.4530 H   0  0  0  0  0  0  0  0  0  0  0  0
   45.5769   25.5046   -7.3019 H   0  0  0  0  0  0  0  0  0  0  0  0
   47.1584   25.9825   -7.3506 H   0  0  0  0  0  0  0  0  0  0  0  0
   45.5994   24.1110  -10.7783 H   0  0  0  0  0  0  0  0  0  0  0  0
   44.9773   23.9108   -9.1372 H   0  0  0  0  0  0  0  0  0  0  0  0
   46.7243   23.7886   -9.4354 H   0  0  0  0  0  0  0  0  0  0  0  0
  1  2  1  0  0  0  0
  1 82  1  0  0  0  0
  1 83  1  0  0  0  0
  1 84  1  0  0  0  0
  2  3  1  0  0  0  0
  2 85  1  0  0  0  0
  2 86  1  0  0  0  0
  3  4  1  0  0  0  0
  3 87  1  0  0  0  0
  3 88  1  0  0  0  0
  4  5  1  0  0  0  0
  4 89  1  0  0  0  0
  4 90  1  0  0  0  0
  5  6  1  0  0  0  0
  5 91  1  0  0  0  0
  5 92  1  0  0  0  0
  6  7  1  0  0  0  0
  6 93  1  0  0  0  0
  6 94  1  0  0  0  0
  7  8  1  0  0  0  0
  7 95  1  0  0  0  0
  7 96  1  0  0  0  0
  8  9  1  0  0  0  0
  8 97  1  0  0  0  0
  9 10  1  0  0  0  0
  9 98  1  0  0  0  0
  9 99  1  0  0  0  0
 10 11  1  0  0  0  0
 10100  1  0  0  0  0
 10101  1  0  0  0  0
 11 12  1  0  0  0  0
 11102  1  0  0  0  0
 11103  1  0  0  0  0
 12 13  1  0  0  0  0
 12104  1  0  0  0  0
 12105  1  0  0  0  0
 13 14  1  0  0  0  0
 13106  1  0  0  0  0
 13107  1  0  0  0  0
 14 15  1  0  0  0  0
 14108  1  0  0  0  0
 14109  1  0  0  0  0
 15 16  1  0  0  0  0
 15110  1  0  0  0  0
 15111  1  0  0  0  0
 16 17  1  0  0  0  0
 16112  1  0  0  0  0
 16113  1  0  0  0  0
 17 18  1  0  0  0  0
 17114  1  0  0  0  0
 17115  1  0  0  0  0
 18 19  1  0  0  0  0
 18116  1  0  0  0  0
 18117  1  0  0  0  0
 19 20  1  0  0  0  0
 19118  1  0  0  0  0
 19119  1  0  0  0  0
 20 21  1  0  0  0  0
 20120  1  0  0  0  0
 20121  1  0  0  0  0
 21 22  1  0  0  0  0
 21122  1  0  0  0  0
 21123  1  0  0  0  0
 22 23  1  0  0  0  0
 22124  1  0  0  0  0
 22125  1  0  0  0  0
 23 24  1  0  0  0  0
 23126  1  0  0  0  0
 23127  1  0  0  0  0
 24 25  1  0  0  0  0
 24128  1  0  0  0  0
 24129  1  0  0  0  0
 25 26  1  0  0  0  0
 25130  1  0  0  0  0
 25131  1  0  0  0  0
 26 27  1  0  0  0  0
 26132  1  0  0  0  0
 26133  1  0  0  0  0
 27 28  1  0  0  0  0
 27134  1  0  0  0  0
 27135  1  0  0  0  0
 28 29  1  0  0  0  0
 29 30  1  0  0  0  0
 29136  1  0  0  0  0
 29137  1  0  0  0  0
 30 31  1  0  0  0  0
 31 32  1  0  0  0  0
 31138  1  0  0  0  0
 31139  1  0  0  0  0
 32 33  1  0  0  0  0
 33 34  1  0  0  0  0
 33140  1  0  0  0  0
 33141  1  0  0  0  0
 34 35  1  0  0  0  0
 35 36  1  0  0  0  0
 35142  1  0  0  0  0
 35143  1  0  0  0  0
 36 37  1  0  0  0  0
 37 38  1  0  0  0  0
 37144  1  0  0  0  0
 37145  1  0  0  0  0
 38 39  1  0  0  0  0
 39 40  1  0  0  0  0
 39146  1  0  0  0  0
 39147  1  0  0  0  0
 40 41  1  0  0  0  0
 41 42  1  0  0  0  0
 41148  1  0  0  0  0
 41149  1  0  0  0  0
 42 43  1  0  0  0  0
 43 44  1  0  0  0  0
 43150  1  0  0  0  0
 43151  1  0  0  0  0
 44 45  1  0  0  0  0
 45 46  1  0  0  0  0
 45152  1  0  0  0  0
 45153  1  0  0  0  0
 46 47  1  0  0  0  0
 47 48  1  0  0  0  0
 47154  1  0  0  0  0
 47155  1  0  0  0  0
 48 49  1  0  0  0  0
 49 50  1  0  0  0  0
 49156  1  0  0  0  0
 49157  1  0  0  0  0
 50 51  1  0  0  0  0
 51 52  1  0  0  0  0
 51158  1  0  0  0  0
 51159  1  0  0  0  0
 52 53  1  0  0  0  0
 53 54  1  0  0  0  0
 53160  1  0  0  0  0
 53161  1  0  0  0  0
 54 55  1  0  0  0  0
 55 56  1  0  0  0  0
 55162  1  0  0  0  0
 55163  1  0  0  0  0
 56 57  1  0  0  0  0
 57 58  1  0  0  0  0
 57164  1  0  0  0  0
 57165  1  0  0  0  0
 58 59  1  0  0  0  0
 59 60  1  0  0  0  0
 59166  1  0  0  0  0
 59167  1  0  0  0  0
 60 61  1  0  0  0  0
 61 62  1  0  0  0  0
 61168  1  0  0  0  0
 61169  1  0  0  0  0
 62 63  1  0  0  0  0
 63 64  1  0  0  0  0
 63170  1  0  0  0  0
 63171  1  0  0  0  0
 64 65  1  0  0  0  0
 65 66  1  0  0  0  0
 65172  1  0  0  0  0
 65173  1  0  0  0  0
 66 67  1  0  0  0  0
 67 68  1  0  0  0  0
 67174  1  0  0  0  0
 67175  1  0  0  0  0
 68 69  1  0  0  0  0
 69 70  1  0  0  0  0
 69176  1  0  0  0  0
 69177  1  0  0  0  0
 70 71  1  0  0  0  0
 71 72  1  0  0  0  0
 71178  1  0  0  0  0
 71179  1  0  0  0  0
 72 73  1  0  0  0  0
 73 74  1  0  0  0  0
 73180  1  0  0  0  0
 73181  1  0  0  0  0
 74 75  1  0  0  0  0
 75 76  1  0  0  0  0
 75182  1  0  0  0  0
 75183  1  0  0  0  0
 76 77  1  0  0  0  0
 77 78  1  0  0  0  0
 77184  1  0  0  0  0
 77185  1  0  0  0  0
 78 79  1  0  0  0  0
 79 80  1  0  0  0  0
 79186  1  0  0  0  0
 79187  1  0  0  0  0
 80 81  1  0  0  0  0
 81188  1  0  0  0  0
 81189  1  0  0  0  0
 81190  1  0  0  0  0
M  END
$$$$
