
 OpenBabel04232216463D

 42 44  0  0  0  0  0  0  0  0999 V2000
    5.7831   -2.2448    0.1210 C   0  0  0  0  0  0  0  0  0  0  0  0
    7.2868   -2.7482   -0.0029 C   0  0  0  0  0  0  0  0  0  0  0  0
    7.7553   -3.9113    0.9331 C   0  0  0  0  0  0  0  0  0  0  0  0
    9.0963   -4.1326    1.1991 C   0  0  0  0  0  0  0  0  0  0  0  0
    9.7657   -2.9358    1.5449 N   0  0  0  0  0  0  0  0  0  0  0  0
    9.9564   -5.3614    0.6592 C   0  0  0  0  0  0  0  0  0  0  0  0
   11.6358   -5.9546    0.9098 C   0  0  0  0  0  0  0  0  0  0  0  0
   12.8449   -7.1334    0.3444 C   0  0  0  0  0  0  0  0  0  0  0  0
   14.3197   -6.9171   -0.2552 C   0  0  0  0  0  0  0  0  0  0  0  0
   14.4418   -5.9431   -1.3383 C   0  0  0  0  0  0  0  0  0  0  0  0
   14.9986   -4.7307   -1.1544 C   0  0  0  0  0  0  0  0  0  0  0  0
   13.7791   -4.7869   -1.6365 C   0  0  0  0  0  0  0  0  0  0  0  0
   12.4883   -4.6074   -2.0148 C   0  0  0  0  0  0  0  0  0  0  0  0
   11.4876   -3.4224   -1.8089 C   0  0  0  0  0  0  0  0  0  0  0  0
   10.2641   -3.5936   -2.3859 C   0  0  0  0  0  0  0  0  0  0  0  0
    9.4678   -6.0082   -0.4207 C   0  0  0  0  0  0  0  0  0  0  0  0
    8.1962   -6.2823   -1.0286 C   0  0  0  0  0  0  0  0  0  0  0  0
    7.5375   -5.3702   -1.7640 C   0  0  0  0  0  0  0  0  0  0  0  0
    8.1217   -4.3559   -2.6632 C   0  0  0  0  0  0  0  0  0  0  0  0
    8.8214   -3.3276   -2.0835 C   0  0  0  0  0  0  0  0  0  0  0  0
    7.9527   -2.4411   -1.1750 C   0  0  0  0  0  0  0  0  0  0  0  0
    5.0505   -3.0653    0.0060 H   0  0  0  0  0  0  0  0  0  0  0  0
    5.4946   -1.5342   -0.6781 H   0  0  0  0  0  0  0  0  0  0  0  0
    5.5419   -1.7376    1.0626 H   0  0  0  0  0  0  0  0  0  0  0  0
    7.0329   -4.7295    0.9265 H   0  0  0  0  0  0  0  0  0  0  0  0
    9.1216   -2.4278    2.1602 H   0  0  0  0  0  0  0  0  0  0  0  0
    9.7086   -2.3495    0.7203 H   0  0  0  0  0  0  0  0  0  0  0  0
   11.5762   -6.2951    1.9630 H   0  0  0  0  0  0  0  0  0  0  0  0
   11.1635   -6.7676    0.3666 H   0  0  0  0  0  0  0  0  0  0  0  0
   12.9894   -7.8568    1.1708 H   0  0  0  0  0  0  0  0  0  0  0  0
   12.3880   -7.7615   -0.4461 H   0  0  0  0  0  0  0  0  0  0  0  0
   14.5917   -7.8756   -0.6734 H   0  0  0  0  0  0  0  0  0  0  0  0
   15.0465   -6.7871    0.5728 H   0  0  0  0  0  0  0  0  0  0  0  0
   15.5892   -4.4295   -0.2783 H   0  0  0  0  0  0  0  0  0  0  0  0
   12.0123   -5.4885   -2.4259 H   0  0  0  0  0  0  0  0  0  0  0  0
   11.7412   -2.7638   -1.0332 H   0  0  0  0  0  0  0  0  0  0  0  0
   10.3284   -4.3928   -3.0986 H   0  0  0  0  0  0  0  0  0  0  0  0
   10.2457   -6.1104   -1.1703 H   0  0  0  0  0  0  0  0  0  0  0  0
    7.6019   -6.9507   -0.3993 H   0  0  0  0  0  0  0  0  0  0  0  0
    7.1073   -4.7338   -1.0273 H   0  0  0  0  0  0  0  0  0  0  0  0
    8.4556   -4.9112   -3.5469 H   0  0  0  0  0  0  0  0  0  0  0  0
    7.4674   -1.6736   -1.7994 H   0  0  0  0  0  0  0  0  0  0  0  0
  1  2  1  0  0  0  0
  1 22  1  0  0  0  0
  1 23  1  0  0  0  0
  1 24  1  0  0  0  0
  2  3  1  0  0  0  0
  2 21  2  0  0  0  0
  3  4  2  0  0  0  0
  3 25  1  0  0  0  0
  4  5  1  0  0  0  0
  4  6  1  0  0  0  0
  5 26  1  0  0  0  0
  5 27  1  0  0  0  0
  6  7  1  0  0  0  0
  6 16  2  0  0  0  0
  7  8  1  0  0  0  0
  7 28  1  0  0  0  0
  7 29  1  0  0  0  0
  8  9  1  0  0  0  0
  8 30  1  0  0  0  0
  8 31  1  0  0  0  0
  9 10  1  0  0  0  0
  9 32  1  0  0  0  0
  9 33  1  0  0  0  0
 10 11  2  0  0  0  0
 10 12  1  0  0  0  0
 11 12  1  0  0  0  0
 11 34  1  0  0  0  0
 12 13  2  3  0  0  0
 13 14  1  0  0  0  0
 13 35  1  0  0  0  0
 14 15  2  3  0  0  0
 14 36  1  0  0  0  0
 15 20  1  0  0  0  0
 15 37  1  0  0  0  0
 16 17  1  0  0  0  0
 16 38  1  0  0  0  0
 17 18  2  0  0  0  0
 17 39  1  0  0  0  0
 18 19  1  0  0  0  0
 18 40  1  0  0  0  0
 19 20  2  0  0  0  0
 19 41  1  0  0  0  0
 20 21  1  0  0  0  0
 21 42  1  0  0  0  0
M  END
$$$$
