
 OpenBabel04232216453D

 34 36  0  0  0  0  0  0  0  0999 V2000
    3.9987    2.5392   -0.9709 C   0  0  0  0  0  0  0  0  0  0  0  0
    4.4790    1.4306   -0.1139 C   0  0  0  0  0  0  0  0  0  0  0  0
    5.0431    1.4922    1.1890 C   0  0  0  0  0  0  0  0  0  0  0  0
    5.5269    0.2312    1.5033 C   0  0  0  0  0  0  0  0  0  0  0  0
    6.1467   -0.2963    2.7471 C   0  0  0  0  0  0  0  0  0  0  0  0
    5.4409   -0.4922    0.3345 N   0  0  0  0  0  0  0  0  0  0  0  0
    6.4851   -1.3831   -0.1946 C   0  0  0  0  0  0  0  0  0  0  0  0
    5.8989   -2.7322   -0.4472 C   0  0  0  0  0  0  0  0  0  0  0  0
    4.9843   -3.2061   -1.4120 N   0  0  0  0  0  0  0  0  0  0  0  0
    4.9059   -4.3223   -0.7722 C   0  0  0  0  0  0  0  0  0  0  0  0
    3.7963   -5.2715   -0.8501 C   0  0  0  0  0  0  0  0  0  0  0  0
    6.0245   -3.9710    0.0391 C   0  0  0  0  0  0  0  0  0  0  0  0
    6.9909   -4.4499    1.0179 C   0  0  0  0  0  0  0  0  0  0  0  0
    7.4963   -5.6959    0.7560 N   0  0  0  0  0  0  0  0  0  0  0  0
    8.7224   -5.7790    0.4964 N   0  0  0  0  0  0  0  0  0  0  0  0
    9.3855   -4.5944    0.1117 N   0  0  0  0  0  0  0  0  0  0  0  0
    9.8171   -3.8394    1.0248 N   0  0  0  0  0  0  0  0  0  0  0  0
    9.6024   -4.2668    2.3396 N   0  0  0  0  0  0  0  0  0  0  0  0
    8.4311   -4.2040    2.7935 N   0  0  0  0  0  0  0  0  0  0  0  0
    7.4420   -3.6529    1.9668 N   0  0  0  0  0  0  0  0  0  0  0  0
    4.5048    0.0999   -0.4804 C   0  0  0  0  0  0  0  0  0  0  0  0
    4.0211    3.4960   -0.4442 H   0  0  0  0  0  0  0  0  0  0  0  0
    2.9856    2.3515   -1.3354 H   0  0  0  0  0  0  0  0  0  0  0  0
    4.6616    2.6206   -1.8417 H   0  0  0  0  0  0  0  0  0  0  0  0
    5.1231    2.3690    1.8217 H   0  0  0  0  0  0  0  0  0  0  0  0
    6.0236    0.4071    3.5767 H   0  0  0  0  0  0  0  0  0  0  0  0
    7.2164   -0.4756    2.6118 H   0  0  0  0  0  0  0  0  0  0  0  0
    5.6706   -1.2389    3.0403 H   0  0  0  0  0  0  0  0  0  0  0  0
    7.3261   -1.3802    0.4970 H   0  0  0  0  0  0  0  0  0  0  0  0
    6.7456   -0.9122   -1.1529 H   0  0  0  0  0  0  0  0  0  0  0  0
    2.8956   -4.6654   -1.0388 H   0  0  0  0  0  0  0  0  0  0  0  0
    3.6441   -5.8126    0.0829 H   0  0  0  0  0  0  0  0  0  0  0  0
    3.8941   -5.9475   -1.7043 H   0  0  0  0  0  0  0  0  0  0  0  0
    4.1354   -0.4033   -1.3647 H   0  0  0  0  0  0  0  0  0  0  0  0
  1  2  1  0  0  0  0
  1 22  1  0  0  0  0
  1 23  1  0  0  0  0
  1 24  1  0  0  0  0
  2  3  1  0  0  0  0
  2 21  2  0  0  0  0
  3  4  2  0  0  0  0
  3 25  1  0  0  0  0
  4  5  1  0  0  0  0
  4  6  1  0  0  0  0
  5 26  1  0  0  0  0
  5 27  1  0  0  0  0
  5 28  1  0  0  0  0
  6  7  1  0  0  0  0
  6 21  1  0  0  0  0
  7  8  1  0  0  0  0
  7 29  1  0  0  0  0
  7 30  1  0  0  0  0
  8  9  1  0  0  0  0
  8 12  2  0  0  0  0
  9 10  2  0  0  0  0
 10 11  1  0  0  0  0
 10 12  1  0  0  0  0
 11 31  1  0  0  0  0
 11 32  1  0  0  0  0
 11 33  1  0  0  0  0
 12 13  1  0  0  0  0
 13 14  1  0  0  0  0
 13 20  2  0  0  0  0
 14 15  2  0  0  0  0
 15 16  1  0  0  0  0
 16 17  2  0  0  0  0
 17 18  1  0  0  0  0
 18 19  2  0  0  0  0
 19 20  1  0  0  0  0
 21 34  1  0  0  0  0
M  END
$$$$
