
 OpenBabel04232216583D

 54 53  0  0  0  0  0  0  0  0999 V2000
    5.0350    0.8018    2.6192 N   0  0  0  0  0  0  0  0  0  0  0  0
    4.5342    0.4079    1.3328 N   0  0  0  0  0  0  0  0  0  0  0  0
    5.0163    1.3511    0.3241 C   0  0  0  0  0  0  0  0  0  0  0  0
    4.5174    0.9345   -1.0704 C   0  0  0  0  0  0  0  0  0  0  0  0
    4.9677    1.8762   -2.1043 N   0  0  0  0  0  0  0  0  0  0  0  0
    6.3908    1.8682   -2.1510 N   0  0  0  0  0  0  0  0  0  0  0  0
    6.8543    2.8241   -3.0952 N   0  0  0  0  0  0  0  0  0  0  0  0
    8.3210    2.8163   -3.0487 C   0  0  0  0  0  0  0  0  0  0  0  0
    8.8500    3.8086   -4.0783 C   0  0  0  0  0  0  0  0  0  0  0  0
   10.3753    3.8183   -4.0845 C   0  0  0  0  0  0  0  0  0  0  0  0
   10.8924    4.8092   -5.1216 C   0  0  0  0  0  0  0  0  0  0  0  0
   12.3547    4.8094   -5.1072 N   0  0  0  0  0  0  0  0  0  0  0  0
   12.8095    5.7447   -6.0700 N   0  0  0  0  0  0  0  0  0  0  0  0
   14.2257    5.7286   -6.0614 N   0  0  0  0  0  0  0  0  0  0  0  0
   14.7062    6.6812   -7.0648 C   0  0  0  0  0  0  0  0  0  0  0  0
   16.2327    6.6894   -7.0669 C   0  0  0  0  0  0  0  0  0  0  0  0
   16.7544    7.6810   -8.0993 C   0  0  0  0  0  0  0  0  0  0  0  0
   18.2791    7.6991   -8.1083 C   0  0  0  0  0  0  0  0  0  0  0  0
   18.8080    8.6890   -9.1422 C   0  0  0  0  0  0  0  0  0  0  0  0
   20.3276    8.6999   -9.1474 C   0  0  0  0  0  0  0  0  0  0  0  0
    4.7975    0.1193    3.3398 H   0  0  0  0  0  0  0  0  0  0  0  0
    4.6673    1.7049    2.9372 H   0  0  0  0  0  0  0  0  0  0  0  0
    3.5131    0.3566    1.2974 H   0  0  0  0  0  0  0  0  0  0  0  0
    6.1119    1.3727    0.3435 H   0  0  0  0  0  0  0  0  0  0  0  0
    4.6536    2.3651    0.5458 H   0  0  0  0  0  0  0  0  0  0  0  0
    3.4206    0.9187   -1.0800 H   0  0  0  0  0  0  0  0  0  0  0  0
    4.8486   -0.0834   -1.3177 H   0  0  0  0  0  0  0  0  0  0  0  0
    4.6211    2.8069   -1.8750 H   0  0  0  0  0  0  0  0  0  0  0  0
    6.7452    0.9291   -2.3706 H   0  0  0  0  0  0  0  0  0  0  0  0
    6.5190    3.7562   -2.8568 H   0  0  0  0  0  0  0  0  0  0  0  0
    8.7033    1.8149   -3.2832 H   0  0  0  0  0  0  0  0  0  0  0  0
    8.6806    3.0895   -2.0491 H   0  0  0  0  0  0  0  0  0  0  0  0
    8.4748    4.8150   -3.8540 H   0  0  0  0  0  0  0  0  0  0  0  0
    8.4794    3.5379   -5.0747 H   0  0  0  0  0  0  0  0  0  0  0  0
   10.7502    2.8112   -4.3063 H   0  0  0  0  0  0  0  0  0  0  0  0
   10.7464    4.0909   -3.0883 H   0  0  0  0  0  0  0  0  0  0  0  0
   10.5115    5.8105   -4.8819 H   0  0  0  0  0  0  0  0  0  0  0  0
   10.5178    4.5331   -6.1157 H   0  0  0  0  0  0  0  0  0  0  0  0
   12.6920    3.8725   -5.3258 H   0  0  0  0  0  0  0  0  0  0  0  0
   12.4633    6.6852   -5.8417 H   0  0  0  0  0  0  0  0  0  0  0  0
   14.5783    4.8005   -6.2827 H   0  0  0  0  0  0  0  0  0  0  0  0
   14.3420    7.6893   -6.8339 H   0  0  0  0  0  0  0  0  0  0  0  0
   14.3360    6.4067   -8.0620 H   0  0  0  0  0  0  0  0  0  0  0  0
   16.6126    5.6862   -7.2929 H   0  0  0  0  0  0  0  0  0  0  0  0
   16.6046    6.9612   -6.0706 H   0  0  0  0  0  0  0  0  0  0  0  0
   16.3759    8.6859   -7.8720 H   0  0  0  0  0  0  0  0  0  0  0  0
   16.3812    7.4110   -9.0942 H   0  0  0  0  0  0  0  0  0  0  0  0
   18.6570    6.6941   -8.3306 H   0  0  0  0  0  0  0  0  0  0  0  0
   18.6508    7.9717   -7.1120 H   0  0  0  0  0  0  0  0  0  0  0  0
   18.4362    9.6957   -8.9204 H   0  0  0  0  0  0  0  0  0  0  0  0
   18.4423    8.4183  -10.1396 H   0  0  0  0  0  0  0  0  0  0  0  0
   20.7165    8.9932   -8.1669 H   0  0  0  0  0  0  0  0  0  0  0  0
   20.6989    9.4107   -9.8900 H   0  0  0  0  0  0  0  0  0  0  0  0
   20.7220    7.7094   -9.3914 H   0  0  0  0  0  0  0  0  0  0  0  0
  1  2  1  0  0  0  0
  1 21  1  0  0  0  0
  1 22  1  0  0  0  0
  2  3  1  0  0  0  0
  2 23  1  0  0  0  0
  3  4  1  0  0  0  0
  3 24  1  0  0  0  0
  3 25  1  0  0  0  0
  4  5  1  0  0  0  0
  4 26  1  0  0  0  0
  4 27  1  0  0  0  0
  5  6  1  0  0  0  0
  5 28  1  0  0  0  0
  6  7  1  0  0  0  0
  6 29  1  0  0  0  0
  7  8  1  0  0  0  0
  7 30  1  0  0  0  0
  8  9  1  0  0  0  0
  8 31  1  0  0  0  0
  8 32  1  0  0  0  0
  9 10  1  0  0  0  0
  9 33  1  0  0  0  0
  9 34  1  0  0  0  0
 10 11  1  0  0  0  0
 10 35  1  0  0  0  0
 10 36  1  0  0  0  0
 11 12  1  0  0  0  0
 11 37  1  0  0  0  0
 11 38  1  0  0  0  0
 12 13  1  0  0  0  0
 12 39  1  0  0  0  0
 13 14  1  0  0  0  0
 13 40  1  0  0  0  0
 14 15  1  0  0  0  0
 14 41  1  0  0  0  0
 15 16  1  0  0  0  0
 15 42  1  0  0  0  0
 15 43  1  0  0  0  0
 16 17  1  0  0  0  0
 16 44  1  0  0  0  0
 16 45  1  0  0  0  0
 17 18  1  0  0  0  0
 17 46  1  0  0  0  0
 17 47  1  0  0  0  0
 18 19  1  0  0  0  0
 18 48  1  0  0  0  0
 18 49  1  0  0  0  0
 19 20  1  0  0  0  0
 19 50  1  0  0  0  0
 19 51  1  0  0  0  0
 20 52  1  0  0  0  0
 20 53  1  0  0  0  0
 20 54  1  0  0  0  0
M  END
$$$$
