
 OpenBabel04232216433D

 81 81  0  0  0  0  0  0  0  0999 V2000
    9.6376    1.1190    3.7837 C   0  0  0  0  0  0  0  0  0  0  0  0
   10.1435   -0.4631    2.9494 C   0  0  0  0  0  0  0  0  0  0  0  0
    9.9307   -1.6894    3.4828 C   0  0  0  0  0  0  0  0  0  0  0  0
    8.9156   -1.6002    4.4304 C   0  0  0  0  0  0  0  0  0  0  0  0
    7.8447   -0.7856    4.2358 C   0  0  0  0  0  0  0  0  0  0  0  0
    7.1632   -0.0428    2.9629 C   0  0  0  0  0  0  0  0  0  0  0  0
    7.6624   -0.0024    1.3966 C   0  0  0  0  0  0  0  0  0  0  0  0
    6.7542    0.0172    0.1073 C   0  0  0  0  0  0  0  0  0  0  0  0
    7.5283    0.2605   -1.2228 C   0  0  0  0  0  0  0  0  0  0  0  0
    8.5485   -0.8375   -1.4919 C   0  0  0  0  0  0  0  0  0  0  0  0
    9.2314   -0.6510   -2.8375 C   0  0  0  0  0  0  0  0  0  0  0  0
   10.2567   -1.7528   -3.0592 C   0  0  0  0  0  0  0  0  0  0  0  0
   10.9397   -1.5583   -4.4024 C   0  0  0  0  0  0  0  0  0  0  0  0
   11.9616   -2.6568   -4.6316 C   0  0  0  0  0  0  0  0  0  0  0  0
   12.6408   -2.4590   -5.9745 C   0  0  0  0  0  0  0  0  0  0  0  0
   13.6609   -3.5590   -6.2055 C   0  0  0  0  0  0  0  0  0  0  0  0
   14.3411   -3.3628   -7.5485 C   0  0  0  0  0  0  0  0  0  0  0  0
   15.3610   -4.4649   -7.7810 C   0  0  0  0  0  0  0  0  0  0  0  0
   16.0435   -4.2706   -9.1252 C   0  0  0  0  0  0  0  0  0  0  0  0
   17.0660   -5.3715   -9.3679 C   0  0  0  0  0  0  0  0  0  0  0  0
   17.7451   -5.1754  -10.7091 C   0  0  0  0  0  0  0  0  0  0  0  0
    6.3279    0.9777    3.3106 C   0  0  0  0  0  0  0  0  0  0  0  0
    6.0266    2.0815    2.3712 C   0  0  0  0  0  0  0  0  0  0  0  0
    5.4024    3.1439    2.7074 N   0  0  0  0  0  0  0  0  0  0  0  0
    5.1050    4.0844    1.7584 C   0  0  0  0  0  0  0  0  0  0  0  0
    4.5250    4.9847    2.2530 N   0  0  0  0  0  0  0  0  0  0  0  0
    3.8229    6.0633    2.2840 C   0  0  0  0  0  0  0  0  0  0  0  0
    3.5825    6.1182    3.7907 C   0  0  0  0  0  0  0  0  0  0  0  0
    4.4662    6.9070    4.4168 C   0  0  0  0  0  0  0  0  0  0  0  0
    5.9720    6.2685    4.7861 C   0  0  0  0  0  0  0  0  0  0  0  0
    6.4055    4.8958    4.8542 C   0  0  0  0  0  0  0  0  0  0  0  0
    7.6222    3.5843    4.5840 C   0  0  0  0  0  0  0  0  0  0  0  0
    8.5666    2.6954    3.7679 C   0  0  0  0  0  0  0  0  0  0  0  0
    9.1742    1.0385    2.8091 H   0  0  0  0  0  0  0  0  0  0  0  0
   10.6802    1.4650    3.7513 H   0  0  0  0  0  0  0  0  0  0  0  0
   10.5333   -0.6223    1.9284 H   0  0  0  0  0  0  0  0  0  0  0  0
   10.4472   -2.6514    3.2274 H   0  0  0  0  0  0  0  0  0  0  0  0
    9.3683   -1.8147    5.4073 H   0  0  0  0  0  0  0  0  0  0  0  0
    7.7951   -0.1425    5.1458 H   0  0  0  0  0  0  0  0  0  0  0  0
    8.4546   -0.7236    1.2130 H   0  0  0  0  0  0  0  0  0  0  0  0
    8.1620    0.9733    1.2866 H   0  0  0  0  0  0  0  0  0  0  0  0
    5.9903    0.8004    0.1291 H   0  0  0  0  0  0  0  0  0  0  0  0
    6.2254   -0.9291    0.0196 H   0  0  0  0  0  0  0  0  0  0  0  0
    8.0199    1.2457   -1.2492 H   0  0  0  0  0  0  0  0  0  0  0  0
    6.8027    0.2743   -2.0500 H   0  0  0  0  0  0  0  0  0  0  0  0
    8.0460   -1.8113   -1.4641 H   0  0  0  0  0  0  0  0  0  0  0  0
    9.3166   -0.8390   -0.7131 H   0  0  0  0  0  0  0  0  0  0  0  0
    9.7288    0.3259   -2.8716 H   0  0  0  0  0  0  0  0  0  0  0  0
    8.4879   -0.6687   -3.6427 H   0  0  0  0  0  0  0  0  0  0  0  0
    9.7668   -2.7342   -3.0289 H   0  0  0  0  0  0  0  0  0  0  0  0
   11.0048   -1.7398   -2.2569 H   0  0  0  0  0  0  0  0  0  0  0  0
   11.4331   -0.5792   -4.4313 H   0  0  0  0  0  0  0  0  0  0  0  0
   10.1929   -1.5698   -5.2055 H   0  0  0  0  0  0  0  0  0  0  0  0
   11.4698   -3.6369   -4.6029 H   0  0  0  0  0  0  0  0  0  0  0  0
   12.7102   -2.6455   -3.8297 H   0  0  0  0  0  0  0  0  0  0  0  0
   13.1343   -1.4797   -6.0033 H   0  0  0  0  0  0  0  0  0  0  0  0
   11.8926   -2.4690   -6.7768 H   0  0  0  0  0  0  0  0  0  0  0  0
   13.1666   -4.5378   -6.1763 H   0  0  0  0  0  0  0  0  0  0  0  0
   14.4085   -3.5487   -5.4028 H   0  0  0  0  0  0  0  0  0  0  0  0
   14.8349   -2.3835   -7.5761 H   0  0  0  0  0  0  0  0  0  0  0  0
   13.5920   -3.3707   -8.3499 H   0  0  0  0  0  0  0  0  0  0  0  0
   14.8641   -5.4423   -7.7512 H   0  0  0  0  0  0  0  0  0  0  0  0
   16.1074   -4.4551   -6.9773 H   0  0  0  0  0  0  0  0  0  0  0  0
   16.5360   -3.2906   -9.1506 H   0  0  0  0  0  0  0  0  0  0  0  0
   15.2921   -4.2754   -9.9246 H   0  0  0  0  0  0  0  0  0  0  0  0
   16.5731   -6.3504   -9.3441 H   0  0  0  0  0  0  0  0  0  0  0  0
   17.8176   -5.3654   -8.5698 H   0  0  0  0  0  0  0  0  0  0  0  0
   17.0115   -5.2006  -11.5213 H   0  0  0  0  0  0  0  0  0  0  0  0
   18.4789   -5.9668  -10.8816 H   0  0  0  0  0  0  0  0  0  0  0  0
   18.2618   -4.2109  -10.7434 H   0  0  0  0  0  0  0  0  0  0  0  0
    6.1599    1.1681    4.3821 H   0  0  0  0  0  0  0  0  0  0  0  0
    6.4791    2.0903    1.3759 H   0  0  0  0  0  0  0  0  0  0  0  0
    5.2212    3.9238    0.6854 H   0  0  0  0  0  0  0  0  0  0  0  0
    2.7977    5.9160    1.7613 H   0  0  0  0  0  0  0  0  0  0  0  0
    4.2022    7.0608    1.8925 H   0  0  0  0  0  0  0  0  0  0  0  0
    3.6307    5.0869    4.1661 H   0  0  0  0  0  0  0  0  0  0  0  0
    4.2723    7.9688    4.1397 H   0  0  0  0  0  0  0  0  0  0  0  0
    5.5615    6.6067    5.8073 H   0  0  0  0  0  0  0  0  0  0  0  0
    5.7247    4.4408    5.5972 H   0  0  0  0  0  0  0  0  0  0  0  0
    6.9498    2.8945    5.1215 H   0  0  0  0  0  0  0  0  0  0  0  0
    8.3543    2.7603    2.6987 H   0  0  0  0  0  0  0  0  0  0  0  0
  1  2  1  0  0  0  0
  1 33  1  0  0  0  0
  1 34  1  0  0  0  0
  1 35  1  0  0  0  0
  2  3  2  3  0  0  0
  2 36  1  0  0  0  0
  3  4  1  0  0  0  0
  3 37  1  0  0  0  0
  4  5  2  3  0  0  0
  4 38  1  0  0  0  0
  5  6  1  0  0  0  0
  5 39  1  0  0  0  0
  6  7  1  0  0  0  0
  6 22  2  3  0  0  0
  7  8  1  0  0  0  0
  7 40  1  0  0  0  0
  7 41  1  0  0  0  0
  8  9  1  0  0  0  0
  8 42  1  0  0  0  0
  8 43  1  0  0  0  0
  9 10  1  0  0  0  0
  9 44  1  0  0  0  0
  9 45  1  0  0  0  0
 10 11  1  0  0  0  0
 10 46  1  0  0  0  0
 10 47  1  0  0  0  0
 11 12  1  0  0  0  0
 11 48  1  0  0  0  0
 11 49  1  0  0  0  0
 12 13  1  0  0  0  0
 12 50  1  0  0  0  0
 12 51  1  0  0  0  0
 13 14  1  0  0  0  0
 13 52  1  0  0  0  0
 13 53  1  0  0  0  0
 14 15  1  0  0  0  0
 14 54  1  0  0  0  0
 14 55  1  0  0  0  0
 15 16  1  0  0  0  0
 15 56  1  0  0  0  0
 15 57  1  0  0  0  0
 16 17  1  0  0  0  0
 16 58  1  0  0  0  0
 16 59  1  0  0  0  0
 17 18  1  0  0  0  0
 17 60  1  0  0  0  0
 17 61  1  0  0  0  0
 18 19  1  0  0  0  0
 18 62  1  0  0  0  0
 18 63  1  0  0  0  0
 19 20  1  0  0  0  0
 19 64  1  0  0  0  0
 19 65  1  0  0  0  0
 20 21  1  0  0  0  0
 20 66  1  0  0  0  0
 20 67  1  0  0  0  0
 21 68  1  0  0  0  0
 21 69  1  0  0  0  0
 21 70  1  0  0  0  0
 22 23  1  0  0  0  0
 22 71  1  0  0  0  0
 23 24  2  3  0  0  0
 23 72  1  0  0  0  0
 24 25  1  0  0  0  0
 25 26  2  3  0  0  0
 25 73  1  0  0  0  0
 26 27  1  0  0  0  0
 27 28  1  0  0  0  0
 27 74  1  0  0  0  0
 27 75  1  0  0  0  0
 28 29  2  3  0  0  0
 28 76  1  0  0  0  0
 29 30  1  0  0  0  0
 29 77  1  0  0  0  0
 30 31  2  3  0  0  0
 30 78  1  0  0  0  0
 31 32  1  0  0  0  0
 31 79  1  0  0  0  0
 32 33  2  3  0  0  0
 32 80  1  0  0  0  0
 33 81  1  0  0  0  0
M  END
$$$$
