
 OpenBabel04232216573D

 99 98  0  0  0  0  0  0  0  0999 V2000
   12.1297    6.8833    3.4533 C   0  0  0  0  0  0  0  0  0  0  0  0
   11.4028    5.2286    3.3412 S   0  0  0  0  0  0  0  0  0  0  0  0
   12.1491    4.3918    4.7804 C   0  0  0  0  0  0  0  0  0  0  0  0
   11.5869    2.9355    4.7820 C   0  0  0  0  0  0  0  0  0  0  0  0
   12.1569    2.1372    5.9640 C   0  0  0  0  0  0  0  0  0  0  0  0
   11.5933    0.7083    5.9497 C   0  0  0  0  0  0  0  0  0  0  0  0
   12.1703   -0.0796    7.1332 C   0  0  0  0  0  0  0  0  0  0  0  0
   11.6084   -1.5099    7.1222 C   0  0  0  0  0  0  0  0  0  0  0  0
   12.1749   -2.3030    8.2692 C   0  0  0  0  0  0  0  0  0  0  0  0
   11.5476   -4.0317    8.2795 S   0  0  0  0  0  0  0  0  0  0  0  0
   12.1572   -4.8347    6.4792 S   0  0  0  0  0  0  0  0  0  0  0  0
   14.2233   -4.8149    6.4724 S   0  0  0  0  0  0  0  0  0  0  0  0
   14.9069   -6.0262    8.0135 S   0  0  0  0  0  0  0  0  0  0  0  0
   17.0031   -5.9873    7.9960 S   0  0  0  0  0  0  0  0  0  0  0  0
   17.6919   -7.1733    9.5917 S   0  0  0  0  0  0  0  0  0  0  0  0
   19.7986   -7.1648    9.5792 S   0  0  0  0  0  0  0  0  0  0  0  0
   20.4886   -8.3536   11.1793 S   0  0  0  0  0  0  0  0  0  0  0  0
   22.5980   -8.3457   11.1686 S   0  0  0  0  0  0  0  0  0  0  0  0
   23.2886   -9.5346   12.7684 S   0  0  0  0  0  0  0  0  0  0  0  0
   25.3980   -9.5267   12.7578 S   0  0  0  0  0  0  0  0  0  0  0  0
   26.0886  -10.7155   14.3575 S   0  0  0  0  0  0  0  0  0  0  0  0
   28.1980  -10.7076   14.3469 S   0  0  0  0  0  0  0  0  0  0  0  0
   28.8886  -11.8965   15.9467 S   0  0  0  0  0  0  0  0  0  0  0  0
   30.9980  -11.8886   15.9360 S   0  0  0  0  0  0  0  0  0  0  0  0
   31.6886  -13.0775   17.5358 S   0  0  0  0  0  0  0  0  0  0  0  0
   33.7980  -13.0696   17.5251 S   0  0  0  0  0  0  0  0  0  0  0  0
   34.4886  -14.2585   19.1249 S   0  0  0  0  0  0  0  0  0  0  0  0
   36.5979  -14.2506   19.1143 S   0  0  0  0  0  0  0  0  0  0  0  0
   37.2886  -15.4394   20.7140 S   0  0  0  0  0  0  0  0  0  0  0  0
   39.3979  -15.4315   20.7034 S   0  0  0  0  0  0  0  0  0  0  0  0
   40.0886  -16.6204   22.3032 S   0  0  0  0  0  0  0  0  0  0  0  0
   42.1979  -16.6125   22.2925 S   0  0  0  0  0  0  0  0  0  0  0  0
   42.8885  -17.8014   23.8923 S   0  0  0  0  0  0  0  0  0  0  0  0
   44.9979  -17.7935   23.8816 S   0  0  0  0  0  0  0  0  0  0  0  0
   45.6885  -18.9824   25.4814 S   0  0  0  0  0  0  0  0  0  0  0  0
   47.7979  -18.9745   25.4708 S   0  0  0  0  0  0  0  0  0  0  0  0
   48.4885  -20.1633   27.0705 S   0  0  0  0  0  0  0  0  0  0  0  0
   50.5979  -20.1554   27.0599 S   0  0  0  0  0  0  0  0  0  0  0  0
   51.2885  -21.3443   28.6596 S   0  0  0  0  0  0  0  0  0  0  0  0
   53.3979  -21.3364   28.6490 S   0  0  0  0  0  0  0  0  0  0  0  0
   54.0885  -22.5253   30.2488 S   0  0  0  0  0  0  0  0  0  0  0  0
   56.1979  -22.5174   30.2381 S   0  0  0  0  0  0  0  0  0  0  0  0
   56.8885  -23.7063   31.8379 S   0  0  0  0  0  0  0  0  0  0  0  0
   58.9979  -23.6984   31.8272 S   0  0  0  0  0  0  0  0  0  0  0  0
   59.6885  -24.8872   33.4270 S   0  0  0  0  0  0  0  0  0  0  0  0
   61.7979  -24.8793   33.4164 S   0  0  0  0  0  0  0  0  0  0  0  0
   62.4885  -26.0682   35.0161 S   0  0  0  0  0  0  0  0  0  0  0  0
   64.5979  -26.0603   35.0055 S   0  0  0  0  0  0  0  0  0  0  0  0
   65.2885  -27.2492   36.6053 S   0  0  0  0  0  0  0  0  0  0  0  0
   67.3979  -27.2413   36.5946 S   0  0  0  0  0  0  0  0  0  0  0  0
   68.0885  -28.4302   38.1944 S   0  0  0  0  0  0  0  0  0  0  0  0
   70.1979  -28.4223   38.1837 S   0  0  0  0  0  0  0  0  0  0  0  0
   70.8885  -29.6111   39.7835 S   0  0  0  0  0  0  0  0  0  0  0  0
   72.9978  -29.6032   39.7729 S   0  0  0  0  0  0  0  0  0  0  0  0
   73.6885  -30.7921   41.3726 S   0  0  0  0  0  0  0  0  0  0  0  0
   75.7978  -30.7842   41.3620 S   0  0  0  0  0  0  0  0  0  0  0  0
   76.4885  -31.9731   42.9617 S   0  0  0  0  0  0  0  0  0  0  0  0
   78.5978  -31.9652   42.9511 S   0  0  0  0  0  0  0  0  0  0  0  0
   79.2884  -33.1541   44.5509 S   0  0  0  0  0  0  0  0  0  0  0  0
   81.3978  -33.1461   44.5402 S   0  0  0  0  0  0  0  0  0  0  0  0
   82.0884  -34.3350   46.1400 S   0  0  0  0  0  0  0  0  0  0  0  0
   84.1978  -34.3271   46.1293 S   0  0  0  0  0  0  0  0  0  0  0  0
   84.8884  -35.5160   47.7291 S   0  0  0  0  0  0  0  0  0  0  0  0
   86.9978  -35.5081   47.7185 S   0  0  0  0  0  0  0  0  0  0  0  0
   87.6884  -36.6970   49.3182 S   0  0  0  0  0  0  0  0  0  0  0  0
   89.7978  -36.6891   49.3076 S   0  0  0  0  0  0  0  0  0  0  0  0
   90.4884  -37.8780   50.9074 S   0  0  0  0  0  0  0  0  0  0  0  0
   92.5978  -37.8700   50.8967 S   0  0  0  0  0  0  0  0  0  0  0  0
   93.2884  -39.0589   52.4965 S   0  0  0  0  0  0  0  0  0  0  0  0
   95.3978  -39.0510   52.4858 S   0  0  0  0  0  0  0  0  0  0  0  0
   96.0884  -40.2399   54.0856 S   0  0  0  0  0  0  0  0  0  0  0  0
   98.1978  -40.2320   54.0750 S   0  0  0  0  0  0  0  0  0  0  0  0
   98.8884  -41.4209   55.6747 S   0  0  0  0  0  0  0  0  0  0  0  0
  100.9977  -41.4130   55.6641 S   0  0  0  0  0  0  0  0  0  0  0  0
  101.6880  -42.6016   57.2639 S   0  0  0  0  0  0  0  0  0  0  0  0
  103.7958  -42.5935   57.2519 S   0  0  0  0  0  0  0  0  0  0  0  0
  104.4824  -43.7806   58.8497 S   0  0  0  0  0  0  0  0  0  0  0  0
  106.5782  -43.7473   58.8409 S   0  0  0  0  0  0  0  0  0  0  0  0
  107.2685  -44.9721   60.3778 S   0  0  0  0  0  0  0  0  0  0  0  0
  109.3490  -44.9074   60.3621 S   0  0  0  0  0  0  0  0  0  0  0  0
  109.9473  -45.7488   58.5855 S   0  0  0  0  0  0  0  0  0  0  0  0
   11.7402    7.4775    2.6200 H   0  0  0  0  0  0  0  0  0  0  0  0
   13.2206    6.8529    3.3600 H   0  0  0  0  0  0  0  0  0  0  0  0
   11.8462    7.3873    4.3835 H   0  0  0  0  0  0  0  0  0  0  0  0
   11.8670    4.8770    5.7100 H   0  0  0  0  0  0  0  0  0  0  0  0
   13.2310    4.3492    4.6958 H   0  0  0  0  0  0  0  0  0  0  0  0
   11.8498    2.4302    3.8496 H   0  0  0  0  0  0  0  0  0  0  0  0
   10.4969    2.9536    4.8556 H   0  0  0  0  0  0  0  0  0  0  0  0
   11.8946    2.6277    6.8977 H   0  0  0  0  0  0  0  0  0  0  0  0
   13.2412    2.1066    5.8964 H   0  0  0  0  0  0  0  0  0  0  0  0
   11.8555    0.2190    5.0177 H   0  0  0  0  0  0  0  0  0  0  0  0
   10.5113    0.7391    6.0201 H   0  0  0  0  0  0  0  0  0  0  0  0
   11.9086    0.4112    8.0673 H   0  0  0  0  0  0  0  0  0  0  0  0
   13.2556   -0.1081    7.0642 H   0  0  0  0  0  0  0  0  0  0  0  0
   11.8750   -1.9798    6.1751 H   0  0  0  0  0  0  0  0  0  0  0  0
   10.5224   -1.4758    7.1888 H   0  0  0  0  0  0  0  0  0  0  0  0
   11.9154   -1.8401    9.2378 H   0  0  0  0  0  0  0  0  0  0  0  0
   13.2692   -2.3518    8.2415 H   0  0  0  0  0  0  0  0  0  0  0  0
  111.2938  -45.6840   58.6428 H   0  0  0  0  0  0  0  0  0  0  0  0
  1  2  1  0  0  0  0
  1 82  1  0  0  0  0
  1 83  1  0  0  0  0
  1 84  1  0  0  0  0
  2  3  1  0  0  0  0
  3  4  1  0  0  0  0
  3 85  1  0  0  0  0
  3 86  1  0  0  0  0
  4  5  1  0  0  0  0
  4 87  1  0  0  0  0
  4 88  1  0  0  0  0
  5  6  1  0  0  0  0
  5 89  1  0  0  0  0
  5 90  1  0  0  0  0
  6  7  1  0  0  0  0
  6 91  1  0  0  0  0
  6 92  1  0  0  0  0
  7  8  1  0  0  0  0
  7 93  1  0  0  0  0
  7 94  1  0  0  0  0
  8  9  1  0  0  0  0
  8 95  1  0  0  0  0
  8 96  1  0  0  0  0
  9 10  1  0  0  0  0
  9 97  1  0  0  0  0
  9 98  1  0  0  0  0
 10 11  1  0  0  0  0
 11 12  1  0  0  0  0
 12 13  1  0  0  0  0
 13 14  1  0  0  0  0
 14 15  1  0  0  0  0
 15 16  1  0  0  0  0
 16 17  1  0  0  0  0
 17 18  1  0  0  0  0
 18 19  1  0  0  0  0
 19 20  1  0  0  0  0
 20 21  1  0  0  0  0
 21 22  1  0  0  0  0
 22 23  1  0  0  0  0
 23 24  1  0  0  0  0
 24 25  1  0  0  0  0
 25 26  1  0  0  0  0
 26 27  1  0  0  0  0
 27 28  1  0  0  0  0
 28 29  1  0  0  0  0
 29 30  1  0  0  0  0
 30 31  1  0  0  0  0
 31 32  1  0  0  0  0
 32 33  1  0  0  0  0
 33 34  1  0  0  0  0
 34 35  1  0  0  0  0
 35 36  1  0  0  0  0
 36 37  1  0  0  0  0
 37 38  1  0  0  0  0
 38 39  1  0  0  0  0
 39 40  1  0  0  0  0
 40 41  1  0  0  0  0
 41 42  1  0  0  0  0
 42 43  1  0  0  0  0
 43 44  1  0  0  0  0
 44 45  1  0  0  0  0
 45 46  1  0  0  0  0
 46 47  1  0  0  0  0
 47 48  1  0  0  0  0
 48 49  1  0  0  0  0
 49 50  1  0  0  0  0
 50 51  1  0  0  0  0
 51 52  1  0  0  0  0
 52 53  1  0  0  0  0
 53 54  1  0  0  0  0
 54 55  1  0  0  0  0
 55 56  1  0  0  0  0
 56 57  1  0  0  0  0
 57 58  1  0  0  0  0
 58 59  1  0  0  0  0
 59 60  1  0  0  0  0
 60 61  1  0  0  0  0
 61 62  1  0  0  0  0
 62 63  1  0  0  0  0
 63 64  1  0  0  0  0
 64 65  1  0  0  0  0
 65 66  1  0  0  0  0
 66 67  1  0  0  0  0
 67 68  1  0  0  0  0
 68 69  1  0  0  0  0
 69 70  1  0  0  0  0
 70 71  1  0  0  0  0
 71 72  1  0  0  0  0
 72 73  1  0  0  0  0
 73 74  1  0  0  0  0
 74 75  1  0  0  0  0
 75 76  1  0  0  0  0
 76 77  1  0  0  0  0
 77 78  1  0  0  0  0
 78 79  1  0  0  0  0
 79 80  1  0  0  0  0
 80 81  1  0  0  0  0
 81 99  1  0  0  0  0
M  END
$$$$
