
 OpenBabel04232216493D

 61 61  0  0  0  0  0  0  0  0999 V2000
    9.5885    2.5232    4.0462 C   0  0  0  0  0  0  0  0  0  0  0  0
   11.2582    3.4856    3.4292 C   0  0  0  0  0  0  0  0  0  0  0  0
    9.7155    3.2735    2.4042 C   0  0  0  0  0  0  0  0  0  0  0  0
    8.5489    2.3622    1.6972 C   0  0  0  0  0  0  0  0  0  0  0  0
    7.1567    2.7514    0.8989 C   0  0  0  0  0  0  0  0  0  0  0  0
    7.2457    3.7347   -0.0064 C   0  0  0  0  0  0  0  0  0  0  0  0
    7.8096    4.7973    0.7908 C   0  0  0  0  0  0  0  0  0  0  0  0
    6.6858    5.3491    1.8759 C   0  0  0  0  0  0  0  0  0  0  0  0
    6.6119    6.5640    2.8266 C   0  0  0  0  0  0  0  0  0  0  0  0
    9.1861    4.7847    0.6694 C   0  0  0  0  0  0  0  0  0  0  0  0
   10.2550    3.3522    0.1340 C   0  0  0  0  0  0  0  0  0  0  0  0
    9.7177    5.7452    1.5776 C   0  0  0  0  0  0  0  0  0  0  0  0
   11.0136    5.8668    1.5706 C   0  0  0  0  0  0  0  0  0  0  0  0
   11.5098    6.8259    2.4318 C   0  0  0  0  0  0  0  0  0  0  0  0
   12.8016    6.9395    2.3468 C   0  0  0  0  0  0  0  0  0  0  0  0
   13.2861    8.0450    3.0788 C   0  0  0  0  0  0  0  0  0  0  0  0
   12.6702    8.8051    3.8023 O   0  0  0  0  0  0  0  0  0  0  0  0
   14.5441    8.0878    2.6719 N   0  0  0  0  0  0  0  0  0  0  0  0
   15.1726    9.0111    3.2507 C   0  0  0  0  0  0  0  0  0  0  0  0
   16.5233    9.0555    2.8646 C   0  0  0  0  0  0  0  0  0  0  0  0
   17.0850   10.0410    3.5260 C   0  0  0  0  0  0  0  0  0  0  0  0
   18.3762   10.2796    3.0831 C   0  0  0  0  0  0  0  0  0  0  0  0
   19.1695   11.1461    3.7054 C   0  0  0  0  0  0  0  0  0  0  0  0
   20.4418   10.4813    3.7939 C   0  0  0  0  0  0  0  0  0  0  0  0
   20.1834    9.5607    4.7898 C   0  0  0  0  0  0  0  0  0  0  0  0
   19.4109    7.8567    4.2747 C   0  0  0  0  0  0  0  0  0  0  0  0
   18.0415    6.9513    4.4779 C   0  0  0  0  0  0  0  0  0  0  0  0
   16.1356    6.0054    4.4188 C   0  0  0  0  0  0  0  0  0  0  0  0
   14.6858    5.2621    3.7719 C   0  0  0  0  0  0  0  0  0  0  0  0
   12.8751    4.2127    3.6994 C   0  0  0  0  0  0  0  0  0  0  0  0
    8.3788    2.2072    3.8635 H   0  0  0  0  0  0  0  0  0  0  0  0
    9.6146    1.4448    3.5433 H   0  0  0  0  0  0  0  0  0  0  0  0
    8.4488    3.2222    3.7232 H   0  0  0  0  0  0  0  0  0  0  0  0
    9.2703    4.2465    2.9036 H   0  0  0  0  0  0  0  0  0  0  0  0
    8.4252    1.2836    1.3770 H   0  0  0  0  0  0  0  0  0  0  0  0
    6.1016    2.6474    1.2397 H   0  0  0  0  0  0  0  0  0  0  0  0
    7.9960    3.5846   -0.7940 H   0  0  0  0  0  0  0  0  0  0  0  0
    6.3215    4.5191    2.5285 H   0  0  0  0  0  0  0  0  0  0  0  0
    5.8404    5.5427    1.2115 H   0  0  0  0  0  0  0  0  0  0  0  0
    6.9863    6.3909    3.8472 H   0  0  0  0  0  0  0  0  0  0  0  0
    5.5431    6.8137    2.9811 H   0  0  0  0  0  0  0  0  0  0  0  0
    7.0814    7.4395    2.3904 H   0  0  0  0  0  0  0  0  0  0  0  0
    9.7474    2.3748   -0.0767 H   0  0  0  0  0  0  0  0  0  0  0  0
   11.0005    2.9006    0.8847 H   0  0  0  0  0  0  0  0  0  0  0  0
   10.8483    3.5284   -0.7376 H   0  0  0  0  0  0  0  0  0  0  0  0
    9.1321    6.2225    2.3778 H   0  0  0  0  0  0  0  0  0  0  0  0
   11.6287    5.2435    0.9344 H   0  0  0  0  0  0  0  0  0  0  0  0
   10.8980    7.4778    3.0385 H   0  0  0  0  0  0  0  0  0  0  0  0
   13.4349    6.2969    1.7478 H   0  0  0  0  0  0  0  0  0  0  0  0
   14.7739    9.7163    3.9939 H   0  0  0  0  0  0  0  0  0  0  0  0
   16.9772    8.3363    2.1832 H   0  0  0  0  0  0  0  0  0  0  0  0
   16.6451   10.5577    4.3724 H   0  0  0  0  0  0  0  0  0  0  0  0
   18.8257    9.4394    2.5267 H   0  0  0  0  0  0  0  0  0  0  0  0
   18.8297   11.7655    4.5407 H   0  0  0  0  0  0  0  0  0  0  0  0
   20.7315   10.2166    2.7550 H   0  0  0  0  0  0  0  0  0  0  0  0
   20.9968    9.9993    5.4817 H   0  0  0  0  0  0  0  0  0  0  0  0
   20.4639    7.6225    4.3835 H   0  0  0  0  0  0  0  0  0  0  0  0
   17.6002    7.8237    4.9069 H   0  0  0  0  0  0  0  0  0  0  0  0
   16.1127    7.0672    3.9616 H   0  0  0  0  0  0  0  0  0  0  0  0
   14.8545    5.5938    2.7118 H   0  0  0  0  0  0  0  0  0  0  0  0
   13.0352    4.4073    2.6291 H   0  0  0  0  0  0  0  0  0  0  0  0
  1  2  1  0  0  0  0
  1 31  1  0  0  0  0
  1 32  1  0  0  0  0
  1 33  1  0  0  0  0
  2  3  1  0  0  0  0
  2 30  2  3  0  0  0
  3  4  2  3  0  0  0
  3 34  1  0  0  0  0
  4  5  1  0  0  0  0
  4 35  1  0  0  0  0
  5  6  2  3  0  0  0
  5 36  1  0  0  0  0
  6  7  1  0  0  0  0
  6 37  1  0  0  0  0
  7  8  1  0  0  0  0
  7 10  2  3  0  0  0
  8  9  1  0  0  0  0
  8 38  1  0  0  0  0
  8 39  1  0  0  0  0
  9 40  1  0  0  0  0
  9 41  1  0  0  0  0
  9 42  1  0  0  0  0
 10 11  1  0  0  0  0
 10 12  1  0  0  0  0
 11 43  1  0  0  0  0
 11 44  1  0  0  0  0
 11 45  1  0  0  0  0
 12 13  2  3  0  0  0
 12 46  1  0  0  0  0
 13 14  1  0  0  0  0
 13 47  1  0  0  0  0
 14 15  2  3  0  0  0
 14 48  1  0  0  0  0
 15 16  1  0  0  0  0
 15 49  1  0  0  0  0
 16 17  2  0  0  0  0
 16 18  1  0  0  0  0
 18 19  2  3  0  0  0
 19 20  1  0  0  0  0
 19 50  1  0  0  0  0
 20 21  2  3  0  0  0
 20 51  1  0  0  0  0
 21 22  1  0  0  0  0
 21 52  1  0  0  0  0
 22 23  2  3  0  0  0
 22 53  1  0  0  0  0
 23 24  1  0  0  0  0
 23 54  1  0  0  0  0
 24 25  2  3  0  0  0
 24 55  1  0  0  0  0
 25 26  1  0  0  0  0
 25 56  1  0  0  0  0
 26 27  2  3  0  0  0
 26 57  1  0  0  0  0
 27 28  1  0  0  0  0
 27 58  1  0  0  0  0
 28 29  2  3  0  0  0
 28 59  1  0  0  0  0
 29 30  1  0  0  0  0
 29 60  1  0  0  0  0
 30 61  1  0  0  0  0
M  END
$$$$
