
 OpenBabel04232216443D

 44 45  0  0  0  0  0  0  0  0999 V2000
    1.0698   -0.0151    0.0700 C   0  0  0  0  0  0  0  0  0  0  0  0
    2.5898   -0.0151    0.0700 C   0  0  0  0  0  0  0  0  0  0  0  0
    3.3099   -0.2553    1.2939 C   0  0  0  0  0  0  0  0  0  0  0  0
    2.6744   -0.4672    2.3740 O   0  0  0  0  0  0  0  0  0  0  0  0
    4.7501   -0.2553    1.2939 C   0  0  0  0  0  0  0  0  0  0  0  0
    5.5101   -0.0018    0.0022 C   0  0  0  0  0  0  0  0  0  0  0  0
    5.4702   -0.4955    2.5178 C   0  0  0  0  0  0  0  0  0  0  0  0
    6.9902   -0.4955    2.5178 C   0  0  0  0  0  0  0  0  0  0  0  0
    7.7502   -0.2420    1.2261 C   0  0  0  0  0  0  0  0  0  0  0  0
    7.6480   -0.7149    3.6359 N   0  0  0  0  0  0  0  0  0  0  0  0
    4.7501   -0.7356    3.7417 C   0  0  0  0  0  0  0  0  0  0  0  0
    3.3099   -0.7356    3.7417 C   0  0  0  0  0  0  0  0  0  0  0  0
    2.5499   -0.4822    2.4500 C   0  0  0  0  0  0  0  0  0  0  0  0
    2.5898   -0.9758    4.9657 C   0  0  0  0  0  0  0  0  0  0  0  0
    3.3498   -1.2293    6.2574 C   0  0  0  0  0  0  0  0  0  0  0  0
    1.1496   -0.9758    4.9657 C   0  0  0  0  0  0  0  0  0  0  0  0
    0.4295   -1.2160    6.1896 C   0  0  0  0  0  0  0  0  0  0  0  0
    1.1895   -1.4695    7.4813 C   0  0  0  0  0  0  0  0  0  0  0  0
   -1.0107   -1.2160    6.1896 C   0  0  0  0  0  0  0  0  0  0  0  0
    3.3099    0.2251   -1.1539 C   0  0  0  0  0  0  0  0  0  0  0  0
    2.5499    0.4785   -2.4456 C   0  0  0  0  0  0  0  0  0  0  0  0
    0.7131   -0.2094    1.0599 H   0  0  0  0  0  0  0  0  0  0  0  0
    0.7131   -0.7753   -0.5932 H   0  0  0  0  0  0  0  0  0  0  0  0
    0.7131    0.9393   -0.2567 H   0  0  0  0  0  0  0  0  0  0  0  0
    4.8148    0.1548   -0.7959 H   0  0  0  0  0  0  0  0  0  0  0  0
    6.1252   -0.8482   -0.2216 H   0  0  0  0  0  0  0  0  0  0  0  0
    6.1252    0.8664    0.1148 H   0  0  0  0  0  0  0  0  0  0  0  0
    7.0549   -0.0854    0.4281 H   0  0  0  0  0  0  0  0  0  0  0  0
    8.3653   -1.0884    1.0023 H   0  0  0  0  0  0  0  0  0  0  0  0
    8.3653    0.6262    1.3387 H   0  0  0  0  0  0  0  0  0  0  0  0
    3.2452   -0.3255    1.6520 H   0  0  0  0  0  0  0  0  0  0  0  0
    1.9347    0.3861    2.5626 H   0  0  0  0  0  0  0  0  0  0  0  0
    1.9347   -1.3285    2.2262 H   0  0  0  0  0  0  0  0  0  0  0  0
    4.4018   -1.1916    6.0655 H   0  0  0  0  0  0  0  0  0  0  0  0
    3.0913   -2.1946    6.6397 H   0  0  0  0  0  0  0  0  0  0  0  0
    3.0913   -0.4800    6.9762 H   0  0  0  0  0  0  0  0  0  0  0  0
    0.6336   -0.8037    4.0886 H   0  0  0  0  0  0  0  0  0  0  0  0
    2.2415   -1.4318    7.2894 H   0  0  0  0  0  0  0  0  0  0  0  0
    0.9310   -2.4348    7.8636 H   0  0  0  0  0  0  0  0  0  0  0  0
    0.9310   -0.7202    8.2001 H   0  0  0  0  0  0  0  0  0  0  0  0
   -1.9045   -1.3153    6.6959 H   0  0  0  0  0  0  0  0  0  0  0  0
    3.2452    0.6352   -3.2437 H   0  0  0  0  0  0  0  0  0  0  0  0
    1.9347    1.3468   -2.3330 H   0  0  0  0  0  0  0  0  0  0  0  0
    1.9347   -0.3678   -2.6695 H   0  0  0  0  0  0  0  0  0  0  0  0
  1  2  1  0  0  0  0
  1 22  1  0  0  0  0
  1 23  1  0  0  0  0
  1 24  1  0  0  0  0
  2  3  1  0  0  0  0
  2 20  2  0  0  0  0
  3  4  2  0  0  0  0
  3  5  1  0  0  0  0
  5  6  1  0  0  0  0
  5  7  2  0  0  0  0
  6 25  1  0  0  0  0
  6 26  1  0  0  0  0
  6 27  1  0  0  0  0
  7  8  1  0  0  0  0
  7 11  1  0  0  0  0
  8  9  1  0  0  0  0
  8 10  2  0  0  0  0
  9 28  1  0  0  0  0
  9 29  1  0  0  0  0
  9 30  1  0  0  0  0
 10 11  1  0  0  0  0
 11 12  2  0  0  0  0
 12 13  1  0  0  0  0
 12 14  1  0  0  0  0
 13 31  1  0  0  0  0
 13 32  1  0  0  0  0
 13 33  1  0  0  0  0
 14 15  1  0  0  0  0
 14 16  2  0  0  0  0
 15 34  1  0  0  0  0
 15 35  1  0  0  0  0
 15 36  1  0  0  0  0
 16 17  1  0  0  0  0
 16 37  1  0  0  0  0
 17 18  1  0  0  0  0
 17 19  2  0  0  0  0
 18 38  1  0  0  0  0
 18 39  1  0  0  0  0
 18 40  1  0  0  0  0
 19 20  1  0  0  0  0
 19 41  1  0  0  0  0
 20 21  1  0  0  0  0
 21 42  1  0  0  0  0
 21 43  1  0  0  0  0
 21 44  1  0  0  0  0
M  END
$$$$
