
 OpenBabel04232216443D

 53 54  0  0  1  0  0  0  0  0999 V2000
    4.0252   -0.1789    3.6870 C   0  0  0  0  0  0  0  0  0  0  0  0
    5.0220   -1.3576    3.3229 C   0  0  3  0  0  0  0  0  0  0  0  0
    4.3336   -1.9127    1.9574 C   0  0  3  0  0  3  0  0  0  0  0  0
    2.9323   -2.5634    1.7159 C   0  0  0  0  0  0  0  0  0  0  0  0
    2.4983   -2.8553    0.2243 C   0  0  0  0  0  0  0  0  0  0  0  0
    5.0271   -1.6308    0.6726 C   0  0  0  0  0  0  0  0  0  0  0  0
    5.6183   -2.9968    0.3969 C   0  0  0  0  0  0  0  0  0  0  0  0
    7.0569   -2.8863    0.3822 C   0  0  0  0  0  0  0  0  0  0  0  0
    7.5658   -4.0224    1.2288 C   0  0  0  0  0  0  0  0  0  0  0  0
    9.0362   -3.8821    1.1509 C   0  0  0  0  0  0  0  0  0  0  0  0
    9.6367   -4.7681    2.2120 C   0  0  0  0  0  0  0  0  0  0  0  0
   10.4612   -3.8111    3.0795 C   0  0  0  0  0  0  0  0  0  0  0  0
   11.4606   -3.1865    2.7428 O   0  0  0  0  0  0  0  0  0  0  0  0
    9.8626   -3.7216    4.4651 C   0  0  0  0  0  0  0  0  0  0  0  0
    8.9305   -2.7307    4.4270 C   0  0  0  0  0  0  0  0  0  0  0  0
    7.4603   -2.6764    4.8712 C   0  0  0  0  0  0  0  0  0  0  0  0
    7.4889   -3.2070    6.3516 C   0  0  0  0  0  0  0  0  0  0  0  0
    7.1666   -2.4787    7.2861 O   0  0  0  0  0  0  0  0  0  0  0  0
    7.9685   -4.5109    6.6336 N   0  0  0  0  0  0  0  0  0  0  0  0
    9.3053   -4.9028    7.2485 C   0  0  0  0  0  0  0  0  0  0  0  0
   10.4136   -5.4358    6.3296 C   0  0  0  0  0  0  0  0  0  0  0  0
   10.0387   -5.1546    4.8966 C   0  0  0  0  0  0  0  0  0  0  0  0
    6.5602   -2.0409    3.9518 C   0  0  0  0  0  0  0  0  0  0  0  0
    3.0659   -0.2784    3.1414 H   0  0  0  0  0  0  0  0  0  0  0  0
    4.3845    0.7791    3.2652 H   0  0  0  0  0  0  0  0  0  0  0  0
    3.7629   -0.0395    4.7296 H   0  0  0  0  0  0  0  0  0  0  0  0
    5.6731   -0.6109    2.8282 H   0  0  0  0  0  0  0  0  0  0  0  0
    2.1339   -1.9385    2.1233 H   0  0  0  0  0  0  0  0  0  0  0  0
    2.9127   -3.5296    2.2247 H   0  0  0  0  0  0  0  0  0  0  0  0
    2.4501   -1.9508   -0.3970 H   0  0  0  0  0  0  0  0  0  0  0  0
    1.5019   -3.3088    0.1736 H   0  0  0  0  0  0  0  0  0  0  0  0
    3.1611   -3.5648   -0.2827 H   0  0  0  0  0  0  0  0  0  0  0  0
    5.7529   -0.8151    0.7717 H   0  0  0  0  0  0  0  0  0  0  0  0
    4.3868   -1.3026   -0.1517 H   0  0  0  0  0  0  0  0  0  0  0  0
    5.2525   -3.4314   -0.5607 H   0  0  0  0  0  0  0  0  0  0  0  0
    5.2728   -3.7313    1.1560 H   0  0  0  0  0  0  0  0  0  0  0  0
    7.4221   -1.9236    0.8679 H   0  0  0  0  0  0  0  0  0  0  0  0
    7.4725   -2.9104   -0.6103 H   0  0  0  0  0  0  0  0  0  0  0  0
    7.2210   -4.9920    0.8591 H   0  0  0  0  0  0  0  0  0  0  0  0
    7.1944   -3.9352    2.2471 H   0  0  0  0  0  0  0  0  0  0  0  0
    9.3140   -2.8307    1.3268 H   0  0  0  0  0  0  0  0  0  0  0  0
    9.4158   -4.1667    0.1768 H   0  0  0  0  0  0  0  0  0  0  0  0
   10.1702   -5.5888    1.8848 H   0  0  0  0  0  0  0  0  0  0  0  0
    8.7780   -5.1673    2.8172 H   0  0  0  0  0  0  0  0  0  0  0  0
    9.2728   -1.7710    4.0338 H   0  0  0  0  0  0  0  0  0  0  0  0
    7.3749   -4.7251    7.4405 H   0  0  0  0  0  0  0  0  0  0  0  0
    9.0840   -5.7940    7.8853 H   0  0  0  0  0  0  0  0  0  0  0  0
    9.7065   -4.1356    7.8983 H   0  0  0  0  0  0  0  0  0  0  0  0
   10.5191   -6.5151    6.4081 H   0  0  0  0  0  0  0  0  0  0  0  0
   11.4068   -5.0531    6.5841 H   0  0  0  0  0  0  0  0  0  0  0  0
    9.1649   -5.7531    4.6812 H   0  0  0  0  0  0  0  0  0  0  0  0
   10.8684   -5.6265    4.3367 H   0  0  0  0  0  0  0  0  0  0  0  0
    7.1795   -1.7440    3.0935 H   0  0  0  0  0  0  0  0  0  0  0  0
  1  2  1  0  0  0  0
  1 24  1  0  0  0  0
  1 25  1  0  0  0  0
  1 26  1  0  0  0  0
  2  3  1  0  0  0  0
  2 23  1  0  0  0  0
  2 27  1  0  0  0  0
  3  4  1  0  0  0  0
  3  6  1  0  0  0  0
  4  5  1  0  0  0  0
  4 28  1  0  0  0  0
  4 29  1  0  0  0  0
  5 30  1  0  0  0  0
  5 31  1  0  0  0  0
  5 32  1  0  0  0  0
  6  7  1  0  0  0  0
  6 33  1  0  0  0  0
  6 34  1  0  0  0  0
  7  8  1  0  0  0  0
  7 35  1  0  0  0  0
  7 36  1  0  0  0  0
  8  9  1  0  0  0  0
  8 37  1  0  0  0  0
  8 38  1  0  0  0  0
  9 10  1  0  0  0  0
  9 39  1  0  0  0  0
  9 40  1  0  0  0  0
 10 11  1  0  0  0  0
 10 41  1  0  0  0  0
 10 42  1  0  0  0  0
 11 12  1  0  0  0  0
 11 43  1  0  0  0  0
 11 44  1  0  0  0  0
 12 13  2  0  0  0  0
 12 14  1  0  0  0  0
 14 15  2  0  0  0  0
 14 22  1  0  0  0  0
 15 16  1  0  0  0  0
 15 45  1  0  0  0  0
 16 17  1  0  0  0  0
 16 23  2  3  0  0  0
 17 18  2  0  0  0  0
 17 19  1  0  0  0  0
 19 20  1  0  0  0  0
 19 46  1  0  0  0  0
 20 21  1  0  0  0  0
 20 47  1  0  0  0  0
 20 48  1  0  0  0  0
 21 22  1  0  0  0  0
 21 49  1  0  0  0  0
 21 50  1  0  0  0  0
 22 51  1  0  0  0  0
 22 52  1  0  0  0  0
 23 53  1  0  0  0  0
M  END
$$$$
