
 OpenBabel04232216473D

 43 44  0  0  0  0  0  0  0  0999 V2000
    4.8646   -2.1128   -0.1296 C   0  0  0  0  0  0  0  0  0  0  0  0
    5.5158   -1.9973    1.2636 C   0  0  0  0  0  0  0  0  0  0  0  0
    4.4573   -1.4485    2.2357 C   0  0  0  0  0  0  0  0  0  0  0  0
    4.5020   -0.0978    2.3858 C   0  0  0  0  0  0  0  0  0  0  0  0
    5.5803    0.2295    3.2909 C   0  0  0  0  0  0  0  0  0  0  0  0
    5.2567   -0.3898    4.6764 C   0  0  0  0  0  0  0  0  0  0  0  0
    6.8192    0.2465    2.7243 C   0  0  0  0  0  0  0  0  0  0  0  0
    7.2797    0.6060    1.2856 C   0  0  0  0  0  0  0  0  0  0  0  0
    7.4360    2.0588    0.8638 C   0  0  0  0  0  0  0  0  0  0  0  0
    8.3797    2.8581    1.7366 C   0  0  0  0  0  0  0  0  0  0  0  0
    7.6466   -0.8526    3.2284 C   0  0  0  0  0  0  0  0  0  0  0  0
    8.0326   -0.5682    4.5415 N   0  0  0  0  0  0  0  0  0  0  0  0
    9.1524   -0.0889    4.8248 N   0  0  0  0  0  0  0  0  0  0  0  0
   10.1563   -0.7845    4.2412 C   0  0  0  0  0  0  0  0  0  0  0  0
   10.9173   -0.0733    3.1692 C   0  0  0  0  0  0  0  0  0  0  0  0
   10.0713   -2.1111    4.4261 C   0  0  0  0  0  0  0  0  0  0  0  0
    9.9400   -2.7903    3.1197 C   0  0  0  0  0  0  0  0  0  0  0  0
   11.2588   -3.4362    2.7125 C   0  0  0  0  0  0  0  0  0  0  0  0
    8.8489   -2.8457    2.3793 N   0  0  0  0  0  0  0  0  0  0  0  0
    7.6928   -2.0314    2.4946 C   0  0  0  0  0  0  0  0  0  0  0  0
    6.8051   -2.2563    1.3791 N   0  0  0  0  0  0  0  0  0  0  0  0
    3.7866   -2.3145   -0.0429 H   0  0  0  0  0  0  0  0  0  0  0  0
    5.3051   -2.8919   -0.7445 H   0  0  0  0  0  0  0  0  0  0  0  0
    4.9462   -1.1405   -0.6333 H   0  0  0  0  0  0  0  0  0  0  0  0
    3.4761   -1.8542    1.9819 H   0  0  0  0  0  0  0  0  0  0  0  0
    4.4516    0.5510    1.5073 H   0  0  0  0  0  0  0  0  0  0  0  0
    4.1771   -0.3855    4.8783 H   0  0  0  0  0  0  0  0  0  0  0  0
    5.7425    0.1447    5.4939 H   0  0  0  0  0  0  0  0  0  0  0  0
    5.5563   -1.4484    4.7212 H   0  0  0  0  0  0  0  0  0  0  0  0
    6.6194    0.1515    0.5428 H   0  0  0  0  0  0  0  0  0  0  0  0
    8.2630    0.1432    1.0941 H   0  0  0  0  0  0  0  0  0  0  0  0
    6.4551    2.5374    0.8103 H   0  0  0  0  0  0  0  0  0  0  0  0
    7.8409    2.0595   -0.1601 H   0  0  0  0  0  0  0  0  0  0  0  0
    8.0623    2.8399    2.7819 H   0  0  0  0  0  0  0  0  0  0  0  0
    8.4014    3.8985    1.3995 H   0  0  0  0  0  0  0  0  0  0  0  0
    9.4000    2.4689    1.6711 H   0  0  0  0  0  0  0  0  0  0  0  0
   10.2390    0.5674    2.6062 H   0  0  0  0  0  0  0  0  0  0  0  0
   11.3990   -0.7428    2.4529 H   0  0  0  0  0  0  0  0  0  0  0  0
   11.6902    0.5502    3.6177 H   0  0  0  0  0  0  0  0  0  0  0  0
    9.4354   -2.5590    5.2044 H   0  0  0  0  0  0  0  0  0  0  0  0
   11.4708   -3.2457    1.6589 H   0  0  0  0  0  0  0  0  0  0  0  0
   11.2871   -4.4987    2.9439 H   0  0  0  0  0  0  0  0  0  0  0  0
   12.0783   -2.9628    3.2795 H   0  0  0  0  0  0  0  0  0  0  0  0
  1  2  1  0  0  0  0
  1 22  1  0  0  0  0
  1 23  1  0  0  0  0
  1 24  1  0  0  0  0
  2  3  1  0  0  0  0
  2 21  2  0  0  0  0
  3  4  2  0  0  0  0
  3 25  1  0  0  0  0
  4  5  1  0  0  0  0
  4 26  1  0  0  0  0
  5  6  1  0  0  0  0
  5  7  2  0  0  0  0
  6 27  1  0  0  0  0
  6 28  1  0  0  0  0
  6 29  1  0  0  0  0
  7  8  1  0  0  0  0
  7 11  1  0  0  0  0
  8  9  1  0  0  0  0
  8 30  1  0  0  0  0
  8 31  1  0  0  0  0
  9 10  1  0  0  0  0
  9 32  1  0  0  0  0
  9 33  1  0  0  0  0
 10 34  1  0  0  0  0
 10 35  1  0  0  0  0
 10 36  1  0  0  0  0
 11 12  1  0  0  0  0
 11 20  2  0  0  0  0
 12 13  2  0  0  0  0
 13 14  1  0  0  0  0
 14 15  1  0  0  0  0
 14 16  2  0  0  0  0
 15 37  1  0  0  0  0
 15 38  1  0  0  0  0
 15 39  1  0  0  0  0
 16 17  1  0  0  0  0
 16 40  1  0  0  0  0
 17 18  1  0  0  0  0
 17 19  2  0  0  0  0
 18 41  1  0  0  0  0
 18 42  1  0  0  0  0
 18 43  1  0  0  0  0
 19 20  1  0  0  0  0
 20 21  1  0  0  0  0
M  END
$$$$
