
 OpenBabel04232216423D

 34 35  0  0  0  0  0  0  0  0999 V2000
    3.8471   -0.4790    2.7156 C   0  0  0  0  0  0  0  0  0  0  0  0
    3.4384   -0.8518    1.3861 C   0  0  0  0  0  0  0  0  0  0  0  0
    3.8678   -1.8995    0.6748 C   0  0  0  0  0  0  0  0  0  0  0  0
    5.1049   -1.3910   -0.0227 C   0  0  0  0  0  0  0  0  0  0  0  0
    4.9897   -0.2099   -0.9509 C   0  0  0  0  0  0  0  0  0  0  0  0
    6.1636   -1.9980    0.4016 N   0  0  0  0  0  0  0  0  0  0  0  0
    7.4772   -1.6905    0.2326 C   0  0  0  0  0  0  0  0  0  0  0  0
    8.0340   -0.3013    0.2509 C   0  0  0  0  0  0  0  0  0  0  0  0
    9.4233   -0.2586   -0.3855 C   0  0  0  0  0  0  0  0  0  0  0  0
    9.3349   -0.5385   -1.8135 C   0  0  0  0  0  0  0  0  0  0  0  0
    8.4386   -0.1218   -2.7251 N   0  0  0  0  0  0  0  0  0  0  0  0
    9.1000   -0.7011   -3.6282 N   0  0  0  0  0  0  0  0  0  0  0  0
   10.0801   -1.0748   -2.6981 N   0  0  0  0  0  0  0  0  0  0  0  0
    8.4082   -2.5660    0.5080 N   0  0  0  0  0  0  0  0  0  0  0  0
    8.2051   -3.4068    1.5749 C   0  0  0  0  0  0  0  0  0  0  0  0
    7.6150   -3.1253    2.7520 C   0  0  0  0  0  0  0  0  0  0  0  0
    7.3148   -1.8324    3.3425 C   0  0  0  0  0  0  0  0  0  0  0  0
    6.3528   -0.9118    3.5631 C   0  0  0  0  0  0  0  0  0  0  0  0
    4.9602   -0.5376    3.4653 C   0  0  0  0  0  0  0  0  0  0  0  0
    3.0587    0.1454    3.1508 H   0  0  0  0  0  0  0  0  0  0  0  0
    2.8483   -0.0906    0.8723 H   0  0  0  0  0  0  0  0  0  0  0  0
    4.1665   -2.8052    1.2098 H   0  0  0  0  0  0  0  0  0  0  0  0
    3.9692   -0.1156   -1.3383 H   0  0  0  0  0  0  0  0  0  0  0  0
    5.6681   -0.3097   -1.7986 H   0  0  0  0  0  0  0  0  0  0  0  0
    5.2172    0.7072   -0.3998 H   0  0  0  0  0  0  0  0  0  0  0  0
    8.1708   -0.0675    1.3178 H   0  0  0  0  0  0  0  0  0  0  0  0
    7.3603    0.4529   -0.1505 H   0  0  0  0  0  0  0  0  0  0  0  0
   10.1163   -0.9781    0.0722 H   0  0  0  0  0  0  0  0  0  0  0  0
    9.8579    0.7315   -0.2563 H   0  0  0  0  0  0  0  0  0  0  0  0
    8.8975   -4.2324    1.5610 H   0  0  0  0  0  0  0  0  0  0  0  0
    7.8266   -3.8841    3.5331 H   0  0  0  0  0  0  0  0  0  0  0  0
    8.2415   -1.5491    3.8657 H   0  0  0  0  0  0  0  0  0  0  0  0
    6.7933   -0.1206    4.1779 H   0  0  0  0  0  0  0  0  0  0  0  0
    4.7849    0.0923    4.3598 H   0  0  0  0  0  0  0  0  0  0  0  0
  1  2  1  0  0  0  0
  1 19  2  3  0  0  0
  1 20  1  0  0  0  0
  2  3  2  3  0  0  0
  2 21  1  0  0  0  0
  3  4  1  0  0  0  0
  3 22  1  0  0  0  0
  4  5  1  0  0  0  0
  4  6  2  3  0  0  0
  5 23  1  0  0  0  0
  5 24  1  0  0  0  0
  5 25  1  0  0  0  0
  6  7  1  0  0  0  0
  7  8  1  0  0  0  0
  7 14  2  3  0  0  0
  8  9  1  0  0  0  0
  8 26  1  0  0  0  0
  8 27  1  0  0  0  0
  9 10  1  0  0  0  0
  9 28  1  0  0  0  0
  9 29  1  0  0  0  0
 10 11  1  0  0  0  0
 10 13  2  0  0  0  0
 11 12  2  0  0  0  0
 12 13  1  0  0  0  0
 14 15  1  0  0  0  0
 15 16  2  3  0  0  0
 15 30  1  0  0  0  0
 16 17  1  0  0  0  0
 16 31  1  0  0  0  0
 17 18  2  3  0  0  0
 17 32  1  0  0  0  0
 18 19  1  0  0  0  0
 18 33  1  0  0  0  0
 19 34  1  0  0  0  0
M  END
$$$$
