
 OpenBabel04232216533D

 60 62  0  0  1  0  0  0  0  0999 V2000
    5.5940   -0.9601    2.1136 C   0  0  0  0  0  0  0  0  0  0  0  0
    4.8122   -0.6452    0.8474 C   0  0  0  0  0  0  0  0  0  0  0  0
    5.1654    0.7451    0.3222 C   0  0  0  0  0  0  0  0  0  0  0  0
    4.4054    1.0818   -0.9602 C   0  0  0  0  0  0  0  0  0  0  0  0
    4.7287    2.4663   -1.5446 C   0  0  0  0  0  0  0  0  0  0  0  0
    6.1867    2.6843   -1.7575 N   0  0  0  0  0  0  0  0  0  0  0  0
    6.8619    1.9450   -2.7994 C   0  0  0  0  0  0  0  0  0  0  0  0
    6.0318    1.3943   -3.8099 N   0  0  0  0  0  0  0  0  0  0  0  0
    5.9134   -0.0458   -4.0953 C   0  0  0  0  0  0  0  0  0  0  0  0
    5.6681   -0.1193   -5.5958 C   0  0  0  0  0  0  0  0  0  0  0  0
    4.8711    1.1462   -5.8602 C   0  0  0  0  0  0  0  0  0  0  0  0
    5.5070    2.1794   -4.9278 C   0  0  0  0  0  0  0  0  0  0  0  0
    8.2223    1.7002   -2.8826 C   0  0  0  0  0  0  0  0  0  0  0  0
    8.8355    1.1365   -4.1563 C   0  0  0  0  0  0  0  0  0  0  0  0
    9.2059    1.7542   -1.7513 C   0  0  0  0  0  0  0  0  0  0  0  0
   10.6627    1.4073   -1.9663 C   0  0  0  0  0  0  0  0  0  0  0  0
    8.7879    2.0808   -0.5294 C   0  0  0  0  0  0  0  0  0  0  0  0
    9.1023    1.9771    0.9469 C   0  0  0  0  0  0  0  0  0  0  0  0
    8.7831    3.5099    1.0110 C   0  0  3  0  0  0  0  0  0  0  0  0
   10.1832    4.1498    1.0114 C   0  0  0  0  0  0  0  0  0  0  0  0
   10.2354    5.6629    1.1142 C   0  0  0  0  0  0  0  0  0  0  0  0
   11.6938    6.0986    1.3143 C   0  0  0  0  0  0  0  0  0  0  0  0
    7.9263    3.1675   -0.2118 C   0  0  0  0  0  0  0  0  0  0  0  0
    6.7890    3.5087   -0.7928 C   0  0  0  0  0  0  0  0  0  0  0  0
    5.3446   -1.9612    2.4779 H   0  0  0  0  0  0  0  0  0  0  0  0
    5.3612   -0.2403    2.9047 H   0  0  0  0  0  0  0  0  0  0  0  0
    6.6726   -0.9256    1.9267 H   0  0  0  0  0  0  0  0  0  0  0  0
    3.7383   -0.7109    1.0543 H   0  0  0  0  0  0  0  0  0  0  0  0
    5.0448   -1.3998    0.0863 H   0  0  0  0  0  0  0  0  0  0  0  0
    6.2410    0.7662    0.1325 H   0  0  0  0  0  0  0  0  0  0  0  0
    4.9487    1.5013    1.0883 H   0  0  0  0  0  0  0  0  0  0  0  0
    3.3274    1.0360   -0.7649 H   0  0  0  0  0  0  0  0  0  0  0  0
    4.6101    0.3025   -1.6938 H   0  0  0  0  0  0  0  0  0  0  0  0
    4.3316    3.2200   -0.8480 H   0  0  0  0  0  0  0  0  0  0  0  0
    4.1634    2.6244   -2.4697 H   0  0  0  0  0  0  0  0  0  0  0  0
    5.0396   -0.4547   -3.5778 H   0  0  0  0  0  0  0  0  0  0  0  0
    6.7833   -0.6370   -3.7927 H   0  0  0  0  0  0  0  0  0  0  0  0
    5.1309   -1.0270   -5.8872 H   0  0  0  0  0  0  0  0  0  0  0  0
    6.6157   -0.0966   -6.1450 H   0  0  0  0  0  0  0  0  0  0  0  0
    3.8209    0.9848   -5.5880 H   0  0  0  0  0  0  0  0  0  0  0  0
    4.9077    1.4538   -6.9085 H   0  0  0  0  0  0  0  0  0  0  0  0
    4.7645    2.9125   -4.6016 H   0  0  0  0  0  0  0  0  0  0  0  0
    6.3191    2.7058   -5.4384 H   0  0  0  0  0  0  0  0  0  0  0  0
    8.1666    1.1355   -5.0162 H   0  0  0  0  0  0  0  0  0  0  0  0
    9.1632    0.1008   -4.0074 H   0  0  0  0  0  0  0  0  0  0  0  0
    9.6898    1.7440   -4.4751 H   0  0  0  0  0  0  0  0  0  0  0  0
   10.8512    0.6594   -2.7370 H   0  0  0  0  0  0  0  0  0  0  0  0
   11.1361    1.0522   -1.0471 H   0  0  0  0  0  0  0  0  0  0  0  0
   11.1912    2.3251   -2.2637 H   0  0  0  0  0  0  0  0  0  0  0  0
   10.1029    1.6465    1.2323 H   0  0  0  0  0  0  0  0  0  0  0  0
    8.3874    1.3706    1.5273 H   0  0  0  0  0  0  0  0  0  0  0  0
    8.2102    3.8142    1.8954 H   0  0  0  0  0  0  0  0  0  0  0  0
   10.7853    3.8191    0.1560 H   0  0  0  0  0  0  0  0  0  0  0  0
   10.6974    3.7660    1.9073 H   0  0  0  0  0  0  0  0  0  0  0  0
    9.6387    6.0200    1.9546 H   0  0  0  0  0  0  0  0  0  0  0  0
    9.8403    6.1191    0.1993 H   0  0  0  0  0  0  0  0  0  0  0  0
   12.0833    5.7292    2.2708 H   0  0  0  0  0  0  0  0  0  0  0  0
   11.7828    7.1884    1.3151 H   0  0  0  0  0  0  0  0  0  0  0  0
   12.3401    5.7044    0.5216 H   0  0  0  0  0  0  0  0  0  0  0  0
    6.1738    4.3116   -0.3985 H   0  0  0  0  0  0  0  0  0  0  0  0
  1  2  1  0  0  0  0
  1 25  1  0  0  0  0
  1 26  1  0  0  0  0
  1 27  1  0  0  0  0
  2  3  1  0  0  0  0
  2 28  1  0  0  0  0
  2 29  1  0  0  0  0
  3  4  1  0  0  0  0
  3 30  1  0  0  0  0
  3 31  1  0  0  0  0
  4  5  1  0  0  0  0
  4 32  1  0  0  0  0
  4 33  1  0  0  0  0
  5  6  1  0  0  0  0
  5 34  1  0  0  0  0
  5 35  1  0  0  0  0
  6  7  1  0  0  0  0
  6 24  1  0  0  0  0
  7  8  1  0  0  0  0
  7 13  2  0  0  0  0
  8  9  1  0  0  0  0
  8 12  1  0  0  0  0
  9 10  1  0  0  0  0
  9 36  1  0  0  0  0
  9 37  1  0  0  0  0
 10 11  1  0  0  0  0
 10 38  1  0  0  0  0
 10 39  1  0  0  0  0
 11 12  1  0  0  0  0
 11 40  1  0  0  0  0
 11 41  1  0  0  0  0
 12 42  1  0  0  0  0
 12 43  1  0  0  0  0
 13 14  1  0  0  0  0
 13 15  1  0  0  0  0
 14 44  1  0  0  0  0
 14 45  1  0  0  0  0
 14 46  1  0  0  0  0
 15 16  1  0  0  0  0
 15 17  2  0  0  0  0
 16 47  1  0  0  0  0
 16 48  1  0  0  0  0
 16 49  1  0  0  0  0
 17 18  1  0  0  0  0
 17 23  1  0  0  0  0
 18 19  1  0  0  0  0
 18 50  1  0  0  0  0
 18 51  1  0  0  0  0
 19 20  1  0  0  0  0
 19 23  1  0  0  0  0
 19 52  1  0  0  0  0
 20 21  1  0  0  0  0
 20 53  1  0  0  0  0
 20 54  1  0  0  0  0
 21 22  1  0  0  0  0
 21 55  1  0  0  0  0
 21 56  1  0  0  0  0
 22 57  1  0  0  0  0
 22 58  1  0  0  0  0
 22 59  1  0  0  0  0
 23 24  2  0  0  0  0
 24 60  1  0  0  0  0
M  END
$$$$
