
 OpenBabel04232216483D

 65 66  0  0  1  0  0  0  0  0999 V2000
    2.2920    0.9205    1.4503 C   0  0  0  0  0  0  0  0  0  0  0  0
    0.8727    0.5620    1.1252 C   0  0  0  0  0  0  0  0  0  0  0  0
    0.0907   -0.1757    2.0207 C   0  0  0  0  0  0  0  0  0  0  0  0
   -1.2453   -0.4613    1.7244 C   0  0  0  0  0  0  0  0  0  0  0  0
   -1.8160   -0.0050    0.5337 C   0  0  0  0  0  0  0  0  0  0  0  0
   -3.5431   -0.3076    0.2157 S   0  0  0  0  0  0  0  0  0  0  0  0
   -4.1182    1.4229    0.0478 C   0  0  0  0  0  0  0  0  0  0  0  0
   -5.6418    1.4497   -0.0679 C   0  0  0  0  0  0  0  0  0  0  0  0
   -6.2549    2.8771   -0.1096 C   0  0  3  0  0  0  0  0  0  0  0  0
   -5.7386    3.6504   -1.3543 C   0  0  0  0  0  0  0  0  0  0  0  0
   -6.2850    5.0658   -1.5866 C   0  0  0  0  0  0  0  0  0  0  0  0
   -5.9954    6.0458   -0.4494 C   0  0  0  0  0  0  0  0  0  0  0  0
   -6.5188    7.4376   -0.7798 C   0  0  0  0  0  0  0  0  0  0  0  0
   -7.8019    2.7887   -0.0928 C   0  0  0  0  0  0  0  0  0  0  0  0
   -8.4348    2.0756    1.1179 C   0  0  0  0  0  0  0  0  0  0  0  0
   -8.1728    2.7062    2.4985 C   0  0  0  0  0  0  0  0  0  0  0  0
   -8.8458    4.0771    2.6437 C   0  0  0  0  0  0  0  0  0  0  0  0
   -8.8172    4.7728    3.9890 C   0  0  0  0  0  0  0  0  0  0  0  0
   -9.4707    6.0166    4.0783 C   0  0  0  0  0  0  0  0  0  0  0  0
   -9.4982    6.7702    5.2645 C   0  0  0  0  0  0  0  0  0  0  0  0
  -10.2379    8.0805    5.2696 C   0  0  0  0  0  0  0  0  0  0  0  0
   -8.8374    6.2774    6.3999 C   0  0  0  0  0  0  0  0  0  0  0  0
   -8.7611    7.0383    7.6971 C   0  0  0  0  0  0  0  0  0  0  0  0
   -8.2010    5.0257    6.3240 C   0  0  0  0  0  0  0  0  0  0  0  0
   -8.1938    4.2809    5.1324 C   0  0  0  0  0  0  0  0  0  0  0  0
   -1.0233    0.6898   -0.3827 C   0  0  0  0  0  0  0  0  0  0  0  0
    0.3111    0.9762   -0.0877 C   0  0  0  0  0  0  0  0  0  0  0  0
    2.5826    0.5538    2.4401 H   0  0  0  0  0  0  0  0  0  0  0  0
    2.4104    2.0091    1.4503 H   0  0  0  0  0  0  0  0  0  0  0  0
    2.9727    0.4839    0.7126 H   0  0  0  0  0  0  0  0  0  0  0  0
    0.5095   -0.5251    2.9617 H   0  0  0  0  0  0  0  0  0  0  0  0
   -1.8390   -1.0265    2.4384 H   0  0  0  0  0  0  0  0  0  0  0  0
   -3.6526    1.8550   -0.8407 H   0  0  0  0  0  0  0  0  0  0  0  0
   -3.8003    1.9921    0.9276 H   0  0  0  0  0  0  0  0  0  0  0  0
   -6.0469    0.9129    0.7960 H   0  0  0  0  0  0  0  0  0  0  0  0
   -5.9559    0.8989   -0.9648 H   0  0  0  0  0  0  0  0  0  0  0  0
   -5.9248    3.4170    0.7853 H   0  0  0  0  0  0  0  0  0  0  0  0
   -5.9565    3.0592   -2.2537 H   0  0  0  0  0  0  0  0  0  0  0  0
   -4.6470    3.7339   -1.3005 H   0  0  0  0  0  0  0  0  0  0  0  0
   -7.3606    5.0288   -1.7857 H   0  0  0  0  0  0  0  0  0  0  0  0
   -5.8236    5.4542   -2.5051 H   0  0  0  0  0  0  0  0  0  0  0  0
   -4.9156    6.1029   -0.2682 H   0  0  0  0  0  0  0  0  0  0  0  0
   -6.4655    5.7038    0.4778 H   0  0  0  0  0  0  0  0  0  0  0  0
   -6.0111    7.8500   -1.6581 H   0  0  0  0  0  0  0  0  0  0  0  0
   -6.3496    8.1195    0.0594 H   0  0  0  0  0  0  0  0  0  0  0  0
   -7.5938    7.4144   -0.9864 H   0  0  0  0  0  0  0  0  0  0  0  0
   -8.1272    2.2573   -0.9988 H   0  0  0  0  0  0  0  0  0  0  0  0
   -8.2367    3.7900   -0.1631 H   0  0  0  0  0  0  0  0  0  0  0  0
   -8.1163    1.0277    1.1411 H   0  0  0  0  0  0  0  0  0  0  0  0
   -9.5198    2.0369    0.9533 H   0  0  0  0  0  0  0  0  0  0  0  0
   -7.0966    2.7795    2.6892 H   0  0  0  0  0  0  0  0  0  0  0  0
   -8.5778    2.0229    3.2557 H   0  0  0  0  0  0  0  0  0  0  0  0
   -9.9016    3.9640    2.3651 H   0  0  0  0  0  0  0  0  0  0  0  0
   -8.3891    4.7624    1.9207 H   0  0  0  0  0  0  0  0  0  0  0  0
   -9.9732    6.4082    3.1921 H   0  0  0  0  0  0  0  0  0  0  0  0
  -10.7139    8.2786    4.3031 H   0  0  0  0  0  0  0  0  0  0  0  0
   -9.5511    8.9076    5.4741 H   0  0  0  0  0  0  0  0  0  0  0  0
  -11.0314    8.0632    6.0229 H   0  0  0  0  0  0  0  0  0  0  0  0
   -9.3134    7.9823    7.6715 H   0  0  0  0  0  0  0  0  0  0  0  0
   -7.7175    7.2805    7.9247 H   0  0  0  0  0  0  0  0  0  0  0  0
   -9.1768    6.4409    8.5138 H   0  0  0  0  0  0  0  0  0  0  0  0
   -7.6966    4.6231    7.1991 H   0  0  0  0  0  0  0  0  0  0  0  0
   -7.6888    3.3179    5.1313 H   0  0  0  0  0  0  0  0  0  0  0  0
   -1.4349    1.0195   -1.3332 H   0  0  0  0  0  0  0  0  0  0  0  0
    0.9075    1.5326   -0.8068 H   0  0  0  0  0  0  0  0  0  0  0  0
  1  2  1  0  0  0  0
  1 28  1  0  0  0  0
  1 29  1  0  0  0  0
  1 30  1  0  0  0  0
  2  3  1  0  0  0  0
  2 27  2  0  0  0  0
  3  4  2  0  0  0  0
  3 31  1  0  0  0  0
  4  5  1  0  0  0  0
  4 32  1  0  0  0  0
  5  6  1  0  0  0  0
  5 26  2  0  0  0  0
  6  7  1  0  0  0  0
  7  8  1  0  0  0  0
  7 33  1  0  0  0  0
  7 34  1  0  0  0  0
  8  9  1  0  0  0  0
  8 35  1  0  0  0  0
  8 36  1  0  0  0  0
  9 10  1  0  0  0  0
  9 14  1  0  0  0  0
  9 37  1  0  0  0  0
 10 11  1  0  0  0  0
 10 38  1  0  0  0  0
 10 39  1  0  0  0  0
 11 12  1  0  0  0  0
 11 40  1  0  0  0  0
 11 41  1  0  0  0  0
 12 13  1  0  0  0  0
 12 42  1  0  0  0  0
 12 43  1  0  0  0  0
 13 44  1  0  0  0  0
 13 45  1  0  0  0  0
 13 46  1  0  0  0  0
 14 15  1  0  0  0  0
 14 47  1  0  0  0  0
 14 48  1  0  0  0  0
 15 16  1  0  0  0  0
 15 49  1  0  0  0  0
 15 50  1  0  0  0  0
 16 17  1  0  0  0  0
 16 51  1  0  0  0  0
 16 52  1  0  0  0  0
 17 18  1  0  0  0  0
 17 53  1  0  0  0  0
 17 54  1  0  0  0  0
 18 19  1  0  0  0  0
 18 25  2  0  0  0  0
 19 20  2  0  0  0  0
 19 55  1  0  0  0  0
 20 21  1  0  0  0  0
 20 22  1  0  0  0  0
 21 56  1  0  0  0  0
 21 57  1  0  0  0  0
 21 58  1  0  0  0  0
 22 23  1  0  0  0  0
 22 24  2  0  0  0  0
 23 59  1  0  0  0  0
 23 60  1  0  0  0  0
 23 61  1  0  0  0  0
 24 25  1  0  0  0  0
 24 62  1  0  0  0  0
 25 63  1  0  0  0  0
 26 27  1  0  0  0  0
 26 64  1  0  0  0  0
 27 65  1  0  0  0  0
M  END
$$$$
