
 OpenBabel04232216503D

 59 61  0  0  1  0  0  0  0  0999 V2000
   -5.5460   -6.5288    1.0619 C   0  0  0  0  0  0  0  0  0  0  0  0
   -5.8194   -5.0579    1.1642 C   0  0  0  0  0  0  0  0  0  0  0  0
   -4.7925   -4.2558    1.5137 N   0  0  0  0  0  0  0  0  0  0  0  0
   -5.0451   -2.9237    1.5943 C   0  0  0  0  0  0  0  0  0  0  0  0
   -6.2736   -2.3004    1.3503 C   0  0  0  0  0  0  0  0  0  0  0  0
   -6.4964   -0.9092    1.4716 N   0  0  0  0  0  0  0  0  0  0  0  0
   -5.6813   -0.1381    2.4644 C   0  0  3  0  0  0  0  0  0  0  0  0
   -4.5311    0.6006    1.7253 C   0  0  0  0  0  0  0  0  0  0  0  0
   -3.5817    1.4493    2.6114 C   0  0  0  0  0  0  0  0  0  0  0  0
   -2.7936    0.5507    3.6002 C   0  0  0  0  0  0  0  0  0  0  0  0
   -2.1192    1.3463    4.7303 C   0  0  0  0  0  0  0  0  0  0  0  0
   -0.6055    1.5155    4.5551 C   0  0  0  0  0  0  0  0  0  0  0  0
   -0.0572    2.7794    5.2298 C   0  0  0  0  0  0  0  0  0  0  0  0
   -0.5691    4.0937    4.6236 C   0  0  0  0  0  0  0  0  0  0  0  0
   -0.0437    4.3630    3.2079 C   0  0  0  0  0  0  0  0  0  0  0  0
   -0.9544    5.3029    2.4053 C   0  0  0  0  0  0  0  0  0  0  0  0
   -1.7141    4.6202    1.2527 C   0  0  0  0  0  0  0  0  0  0  0  0
   -2.9205    3.7770    1.6971 C   0  0  0  0  0  0  0  0  0  0  0  0
   -2.6181    2.2709    1.7103 C   0  0  0  0  0  0  0  0  0  0  0  0
   -6.5811    0.8752    3.1600 C   0  0  0  0  0  0  0  0  0  0  0  0
   -7.6929    1.3652    2.5839 C   0  0  0  0  0  0  0  0  0  0  0  0
   -8.0902    0.8802    1.2820 C   0  0  0  0  0  0  0  0  0  0  0  0
   -7.5328   -0.2474    0.8154 C   0  0  0  0  0  0  0  0  0  0  0  0
   -7.3016   -3.1800    0.9810 C   0  0  0  0  0  0  0  0  0  0  0  0
   -7.0830   -4.5579    0.8852 C   0  0  0  0  0  0  0  0  0  0  0  0
   -4.5664   -6.7729    1.4863 H   0  0  0  0  0  0  0  0  0  0  0  0
   -5.5552   -6.8405    0.0132 H   0  0  0  0  0  0  0  0  0  0  0  0
   -6.3031   -7.0989    1.6108 H   0  0  0  0  0  0  0  0  0  0  0  0
   -4.1671   -2.3447    1.8678 H   0  0  0  0  0  0  0  0  0  0  0  0
   -5.3026   -0.8161    3.2364 H   0  0  0  0  0  0  0  0  0  0  0  0
   -4.9752    1.2690    0.9729 H   0  0  0  0  0  0  0  0  0  0  0  0
   -3.9366   -0.1248    1.1582 H   0  0  0  0  0  0  0  0  0  0  0  0
   -4.1951    2.1428    3.1989 H   0  0  0  0  0  0  0  0  0  0  0  0
   -2.0680   -0.0677    3.0593 H   0  0  0  0  0  0  0  0  0  0  0  0
   -3.4864   -0.1431    4.0850 H   0  0  0  0  0  0  0  0  0  0  0  0
   -2.2757    0.8061    5.6728 H   0  0  0  0  0  0  0  0  0  0  0  0
   -2.6333    2.3020    4.8604 H   0  0  0  0  0  0  0  0  0  0  0  0
   -0.3117    1.5012    3.5039 H   0  0  0  0  0  0  0  0  0  0  0  0
   -0.1109    0.6422    4.9995 H   0  0  0  0  0  0  0  0  0  0  0  0
    1.0381    2.7622    5.1791 H   0  0  0  0  0  0  0  0  0  0  0  0
   -0.3213    2.7539    6.2943 H   0  0  0  0  0  0  0  0  0  0  0  0
   -0.2435    4.9183    5.2716 H   0  0  0  0  0  0  0  0  0  0  0  0
   -1.6613    4.1199    4.6407 H   0  0  0  0  0  0  0  0  0  0  0  0
    0.1345    3.4406    2.6513 H   0  0  0  0  0  0  0  0  0  0  0  0
    0.9427    4.8349    3.3118 H   0  0  0  0  0  0  0  0  0  0  0  0
   -0.3138    6.0752    1.9576 H   0  0  0  0  0  0  0  0  0  0  0  0
   -1.6541    5.8356    3.0581 H   0  0  0  0  0  0  0  0  0  0  0  0
   -1.0211    4.0296    0.6409 H   0  0  0  0  0  0  0  0  0  0  0  0
   -2.0850    5.4215    0.6014 H   0  0  0  0  0  0  0  0  0  0  0  0
   -3.7389    3.9450    0.9834 H   0  0  0  0  0  0  0  0  0  0  0  0
   -3.2828    4.1248    2.6703 H   0  0  0  0  0  0  0  0  0  0  0  0
   -1.5889    2.1177    2.0177 H   0  0  0  0  0  0  0  0  0  0  0  0
   -2.6619    1.9065    0.6758 H   0  0  0  0  0  0  0  0  0  0  0  0
   -6.2917    1.2044    4.1533 H   0  0  0  0  0  0  0  0  0  0  0  0
   -8.3200    2.0964    3.0829 H   0  0  0  0  0  0  0  0  0  0  0  0
   -8.8731    1.3935    0.7405 H   0  0  0  0  0  0  0  0  0  0  0  0
   -7.8472   -0.6911   -0.1246 H   0  0  0  0  0  0  0  0  0  0  0  0
   -8.3067   -2.8088    0.7997 H   0  0  0  0  0  0  0  0  0  0  0  0
   -7.8976   -5.2203    0.6094 H   0  0  0  0  0  0  0  0  0  0  0  0
  1  2  1  0  0  0  0
  1 26  1  0  0  0  0
  1 27  1  0  0  0  0
  1 28  1  0  0  0  0
  2  3  1  0  0  0  0
  2 25  2  0  0  0  0
  3  4  2  0  0  0  0
  4  5  1  0  0  0  0
  4 29  1  0  0  0  0
  5  6  1  0  0  0  0
  5 24  2  0  0  0  0
  6  7  1  0  0  0  0
  6 23  1  0  0  0  0
  7  8  1  0  0  0  0
  7 20  1  0  0  0  0
  7 30  1  0  0  0  0
  8  9  1  0  0  0  0
  8 31  1  0  0  0  0
  8 32  1  0  0  0  0
  9 10  1  0  0  0  0
  9 19  1  0  0  0  0
  9 33  1  0  0  0  0
 10 11  1  0  0  0  0
 10 34  1  0  0  0  0
 10 35  1  0  0  0  0
 11 12  1  0  0  0  0
 11 36  1  0  0  0  0
 11 37  1  0  0  0  0
 12 13  1  0  0  0  0
 12 38  1  0  0  0  0
 12 39  1  0  0  0  0
 13 14  1  0  0  0  0
 13 40  1  0  0  0  0
 13 41  1  0  0  0  0
 14 15  1  0  0  0  0
 14 42  1  0  0  0  0
 14 43  1  0  0  0  0
 15 16  1  0  0  0  0
 15 44  1  0  0  0  0
 15 45  1  0  0  0  0
 16 17  1  0  0  0  0
 16 46  1  0  0  0  0
 16 47  1  0  0  0  0
 17 18  1  0  0  0  0
 17 48  1  0  0  0  0
 17 49  1  0  0  0  0
 18 19  1  0  0  0  0
 18 50  1  0  0  0  0
 18 51  1  0  0  0  0
 19 52  1  0  0  0  0
 19 53  1  0  0  0  0
 20 21  2  0  0  0  0
 20 54  1  0  0  0  0
 21 22  1  0  0  0  0
 21 55  1  0  0  0  0
 22 23  2  0  0  0  0
 22 56  1  0  0  0  0
 23 57  1  0  0  0  0
 24 25  1  0  0  0  0
 24 58  1  0  0  0  0
 25 59  1  0  0  0  0
M  END
$$$$
