
 OpenBabel04232216533D

159158  0  0  0  0  0  0  0  0999 V2000
    0.8844   -0.0960    0.0103 C   0  0  0  0  0  0  0  0  0  0  0  0
    2.4014   -0.0871    0.0017 C   0  0  0  0  0  0  0  0  0  0  0  0
    2.9342    1.3086    0.3029 C   0  0  0  0  0  0  0  0  0  0  0  0
    4.4581    1.3208    0.3044 C   0  0  0  0  0  0  0  0  0  0  0  0
    4.9766    2.7218    0.5980 C   0  0  0  0  0  0  0  0  0  0  0  0
    6.4972    2.7319    0.6022 C   0  0  0  0  0  0  0  0  0  0  0  0
    7.0118    4.1306    0.8939 C   0  0  0  0  0  0  0  0  0  0  0  0
    8.5306    4.1401    0.8986 C   0  0  0  0  0  0  0  0  0  0  0  0
    9.0424    5.5386    1.1910 C   0  0  0  0  0  0  0  0  0  0  0  0
   10.5595    5.5477    1.1962 C   0  0  0  0  0  0  0  0  0  0  0  0
   11.0721    6.9443    1.4913 C   0  0  0  0  0  0  0  0  0  0  0  0
   12.5892    6.9477    1.4948 C   0  0  0  0  0  0  0  0  0  0  0  0
   13.1025    8.3446    1.7862 C   0  0  0  0  0  0  0  0  0  0  0  0
   14.6185    8.3501    1.7883 C   0  0  0  0  0  0  0  0  0  0  0  0
   15.1309    9.7463    2.0811 C   0  0  0  0  0  0  0  0  0  0  0  0
   16.6462    9.7563    2.0755 C   0  0  0  0  0  0  0  0  0  0  0  0
   17.1579   11.1478    2.3848 C   0  0  0  0  0  0  0  0  0  0  0  0
   18.6710   11.1613    2.3671 C   0  0  0  0  0  0  0  0  0  0  0  0
   19.1831   12.5559    2.6677 C   0  0  0  0  0  0  0  0  0  0  0  0
   20.7007   12.5606    2.6638 C   0  0  0  0  0  0  0  0  0  0  0  0
   21.2112   13.9578    2.9561 C   0  0  0  0  0  0  0  0  0  0  0  0
   22.7281   13.9649    2.9559 C   0  0  0  0  0  0  0  0  0  0  0  0
   23.2374   15.3635    3.2500 C   0  0  0  0  0  0  0  0  0  0  0  0
   24.7549   15.3679    3.2544 C   0  0  0  0  0  0  0  0  0  0  0  0
   25.2651   16.7677    3.5349 C   0  0  0  0  0  0  0  0  0  0  0  0
   26.7858   16.7715    3.5549 C   0  0  0  0  0  0  0  0  0  0  0  0
   27.2986   18.1628    3.8433 C   0  0  0  0  0  0  0  0  0  0  0  0
   28.8143   18.1798    3.8409 C   0  0  0  0  0  0  0  0  0  0  0  0
   29.3304   19.5752    4.1345 C   0  0  0  0  0  0  0  0  0  0  0  0
   30.8491   19.5866    4.1341 C   0  0  0  0  0  0  0  0  0  0  0  0
   31.3706   20.9851    4.4298 C   0  0  0  0  0  0  0  0  0  0  0  0
   32.8932   20.9969    4.4289 C   0  0  0  0  0  0  0  0  0  0  0  0
   33.4234   22.3968    4.7253 C   0  0  0  0  0  0  0  0  0  0  0  0
   34.9487   22.4104    4.7228 C   0  0  0  0  0  0  0  0  0  0  0  0
   35.4898   23.8146    5.0177 C   0  0  0  0  0  0  0  0  0  0  0  0
   37.0167   23.8438    5.0169 C   0  0  0  0  0  0  0  0  0  0  0  0
   37.5502   25.2499    5.3156 C   0  0  0  0  0  0  0  0  0  0  0  0
   39.0652   25.2913    5.3232 C   0  0  0  0  0  0  0  0  0  0  0  0
   39.6975   26.9940    5.7051 S   0  0  0  0  0  0  0  0  0  0  0  0
   38.9793   27.4498    7.5801 S   0  0  0  0  0  0  0  0  0  0  0  0
   39.7525   26.0425    8.8753 S   0  0  0  0  0  0  0  0  0  0  0  0
   41.8117   26.2224    8.8770 S   0  0  0  0  0  0  0  0  0  0  0  0
   42.5538   24.7716   10.1789 S   0  0  0  0  0  0  0  0  0  0  0  0
   44.6416   24.9037   10.1533 S   0  0  0  0  0  0  0  0  0  0  0  0
   45.4015   23.4670   11.4795 S   0  0  0  0  0  0  0  0  0  0  0  0
   47.4975   23.5975   11.4553 S   0  0  0  0  0  0  0  0  0  0  0  0
   48.2683   22.1604   12.7818 S   0  0  0  0  0  0  0  0  0  0  0  0
   50.3681   22.2923   12.7568 S   0  0  0  0  0  0  0  0  0  0  0  0
   51.1451   20.8547   14.0839 S   0  0  0  0  0  0  0  0  0  0  0  0
   53.2473   20.9859   14.0595 S   0  0  0  0  0  0  0  0  0  0  0  0
   54.0267   19.5475   15.3875 S   0  0  0  0  0  0  0  0  0  0  0  0
   56.1304   19.6776   15.3642 S   0  0  0  0  0  0  0  0  0  0  0  0
   56.9109   18.2387   16.6928 S   0  0  0  0  0  0  0  0  0  0  0  0
   59.0154   18.3682   16.6700 S   0  0  0  0  0  0  0  0  0  0  0  0
   59.7966   16.9290   17.9988 S   0  0  0  0  0  0  0  0  0  0  0  0
   61.9016   17.0583   17.9763 S   0  0  0  0  0  0  0  0  0  0  0  0
   62.6831   15.6189   19.3052 S   0  0  0  0  0  0  0  0  0  0  0  0
   64.7883   15.7481   19.2828 S   0  0  0  0  0  0  0  0  0  0  0  0
   65.5700   14.3087   20.6118 S   0  0  0  0  0  0  0  0  0  0  0  0
   67.6752   14.4379   20.5894 S   0  0  0  0  0  0  0  0  0  0  0  0
   68.4569   12.9985   21.9184 S   0  0  0  0  0  0  0  0  0  0  0  0
   70.5621   13.1277   21.8960 S   0  0  0  0  0  0  0  0  0  0  0  0
   71.3436   11.6884   23.2249 S   0  0  0  0  0  0  0  0  0  0  0  0
   73.4486   11.8177   23.2024 S   0  0  0  0  0  0  0  0  0  0  0  0
   74.2298   10.3785   24.5312 S   0  0  0  0  0  0  0  0  0  0  0  0
   76.3342   10.5080   24.5084 S   0  0  0  0  0  0  0  0  0  0  0  0
   77.1146    9.0692   25.8368 S   0  0  0  0  0  0  0  0  0  0  0  0
   79.2179    9.1993   25.8134 S   0  0  0  0  0  0  0  0  0  0  0  0
   79.9964    7.7611   27.1413 S   0  0  0  0  0  0  0  0  0  0  0  0
   82.0976    7.8924   27.1167 S   0  0  0  0  0  0  0  0  0  0  0  0
   82.8728    6.4553   28.4434 S   0  0  0  0  0  0  0  0  0  0  0  0
   84.9701    6.5891   28.4165 S   0  0  0  0  0  0  0  0  0  0  0  0
   85.7402    5.1541   29.7410 S   0  0  0  0  0  0  0  0  0  0  0  0
   87.8315    5.2923   29.7098 S   0  0  0  0  0  0  0  0  0  0  0  0
   88.5934    3.8606   31.0312 S   0  0  0  0  0  0  0  0  0  0  0  0
   90.6755    4.0043   30.9940 S   0  0  0  0  0  0  0  0  0  0  0  0
   91.4201    2.5757   32.3122 S   0  0  0  0  0  0  0  0  0  0  0  0
   93.4855    2.7457   32.2874 S   0  0  0  0  0  0  0  0  0  0  0  0
   94.2220    1.2803   33.5484 S   0  0  0  0  0  0  0  0  0  0  0  0
   96.2765    1.4817   33.5302 S   0  0  0  0  0  0  0  0  0  0  0  0
   96.8502    1.0412   31.6073 S   0  0  0  0  0  0  0  0  0  0  0  0
    0.5084   -1.0973   -0.2034 H   0  0  0  0  0  0  0  0  0  0  0  0
    0.4898    0.5867   -0.7526 H   0  0  0  0  0  0  0  0  0  0  0  0
    0.4954    0.2140    0.9823 H   0  0  0  0  0  0  0  0  0  0  0  0
    2.7674   -0.4256   -0.9708 H   0  0  0  0  0  0  0  0  0  0  0  0
    2.7738   -0.7971    0.7564 H   0  0  0  0  0  0  0  0  0  0  0  0
    2.5637    1.6492    1.2761 H   0  0  0  0  0  0  0  0  0  0  0  0
    2.5631    2.0169   -0.4501 H   0  0  0  0  0  0  0  0  0  0  0  0
    4.8358    0.9838   -0.6681 H   0  0  0  0  0  0  0  0  0  0  0  0
    4.8351    0.6205    1.0600 H   0  0  0  0  0  0  0  0  0  0  0  0
    4.6021    3.0617    1.5720 H   0  0  0  0  0  0  0  0  0  0  0  0
    4.6029    3.4240   -0.1560 H   0  0  0  0  0  0  0  0  0  0  0  0
    6.8754    2.3930   -0.3703 H   0  0  0  0  0  0  0  0  0  0  0  0
    6.8738    2.0331    1.3583 H   0  0  0  0  0  0  0  0  0  0  0  0
    6.6356    4.4731    1.8663 H   0  0  0  0  0  0  0  0  0  0  0  0
    6.6388    4.8330    0.1376 H   0  0  0  0  0  0  0  0  0  0  0  0
    8.9095    3.7993   -0.0735 H   0  0  0  0  0  0  0  0  0  0  0  0
    8.9060    3.4397    1.6556 H   0  0  0  0  0  0  0  0  0  0  0  0
    8.6637    5.8794    2.1622 H   0  0  0  0  0  0  0  0  0  0  0  0
    8.6685    6.2393    0.4334 H   0  0  0  0  0  0  0  0  0  0  0  0
   10.9393    5.2068    0.2251 H   0  0  0  0  0  0  0  0  0  0  0  0
   10.9337    4.8459    1.9537 H   0  0  0  0  0  0  0  0  0  0  0  0
   10.6955    7.2836    2.4643 H   0  0  0  0  0  0  0  0  0  0  0  0
   10.6982    7.6473    0.7357 H   0  0  0  0  0  0  0  0  0  0  0  0
   12.9668    6.6064    0.5225 H   0  0  0  0  0  0  0  0  0  0  0  0
   12.9630    6.2472    2.2517 H   0  0  0  0  0  0  0  0  0  0  0  0
   12.7267    8.6854    2.7592 H   0  0  0  0  0  0  0  0  0  0  0  0
   12.7274    9.0470    1.0308 H   0  0  0  0  0  0  0  0  0  0  0  0
   14.9960    8.0088    0.8155 H   0  0  0  0  0  0  0  0  0  0  0  0
   14.9940    7.6494    2.5446 H   0  0  0  0  0  0  0  0  0  0  0  0
   14.7559   10.0865    3.0543 H   0  0  0  0  0  0  0  0  0  0  0  0
   14.7520   10.4498    1.3253 H   0  0  0  0  0  0  0  0  0  0  0  0
   17.0205    9.4218    1.1024 H   0  0  0  0  0  0  0  0  0  0  0  0
   17.0257    9.0476    2.8289 H   0  0  0  0  0  0  0  0  0  0  0  0
   16.7851   11.4814    3.3544 H   0  0  0  0  0  0  0  0  0  0  0  0
   16.7729   11.8595    1.6286 H   0  0  0  0  0  0  0  0  0  0  0  0
   19.0419   10.8246    1.3958 H   0  0  0  0  0  0  0  0  0  0  0  0
   19.0533   10.4538    3.1222 H   0  0  0  0  0  0  0  0  0  0  0  0
   18.8114   12.8895    3.6440 H   0  0  0  0  0  0  0  0  0  0  0  0
   18.8035   13.2605    1.9168 H   0  0  0  0  0  0  0  0  0  0  0  0
   21.0733   12.2228    1.6880 H   0  0  0  0  0  0  0  0  0  0  0  0
   21.0787   11.8579    3.4160 H   0  0  0  0  0  0  0  0  0  0  0  0
   20.8363   14.2961    3.9309 H   0  0  0  0  0  0  0  0  0  0  0  0
   20.8331   14.6595    2.2022 H   0  0  0  0  0  0  0  0  0  0  0  0
   23.1032   13.6275    1.9807 H   0  0  0  0  0  0  0  0  0  0  0  0
   23.1053   13.2628    3.7090 H   0  0  0  0  0  0  0  0  0  0  0  0
   22.8614   15.7002    4.2249 H   0  0  0  0  0  0  0  0  0  0  0  0
   22.8610   16.0651    2.4966 H   0  0  0  0  0  0  0  0  0  0  0  0
   25.1307   15.0286    2.2786 H   0  0  0  0  0  0  0  0  0  0  0  0
   25.1297   14.6689    4.0075 H   0  0  0  0  0  0  0  0  0  0  0  0
   24.8893   17.1071    4.5197 H   0  0  0  0  0  0  0  0  0  0  0  0
   24.8910   17.4683    2.7884 H   0  0  0  0  0  0  0  0  0  0  0  0
   27.1624   16.4284    2.5749 H   0  0  0  0  0  0  0  0  0  0  0  0
   27.1553   16.0718    4.3046 H   0  0  0  0  0  0  0  0  0  0  0  0
   26.9226   18.5064    4.8152 H   0  0  0  0  0  0  0  0  0  0  0  0
   26.9176   18.8729    3.0869 H   0  0  0  0  0  0  0  0  0  0  0  0
   29.1885   17.8394    2.8644 H   0  0  0  0  0  0  0  0  0  0  0  0
   29.1929   17.4740    4.5940 H   0  0  0  0  0  0  0  0  0  0  0  0
   28.9552   19.9134    5.1097 H   0  0  0  0  0  0  0  0  0  0  0  0
   28.9512   20.2784    3.3813 H   0  0  0  0  0  0  0  0  0  0  0  0
   31.2224   19.2479    3.1581 H   0  0  0  0  0  0  0  0  0  0  0  0
   31.2259   18.8811    4.8856 H   0  0  0  0  0  0  0  0  0  0  0  0
   30.9944   21.3198    5.4045 H   0  0  0  0  0  0  0  0  0  0  0  0
   30.9904   21.6872    3.6776 H   0  0  0  0  0  0  0  0  0  0  0  0
   33.2627   20.6573    3.4535 H   0  0  0  0  0  0  0  0  0  0  0  0
   33.2664   20.2904    5.1805 H   0  0  0  0  0  0  0  0  0  0  0  0
   33.0476   22.7302    5.7003 H   0  0  0  0  0  0  0  0  0  0  0  0
   33.0413   23.0982    3.9737 H   0  0  0  0  0  0  0  0  0  0  0  0
   35.3164   22.0706    3.7465 H   0  0  0  0  0  0  0  0  0  0  0  0
   35.3228   21.7029    5.4729 H   0  0  0  0  0  0  0  0  0  0  0  0
   35.1105   24.1438    5.9943 H   0  0  0  0  0  0  0  0  0  0  0  0
   35.1018   24.5128    4.2686 H   0  0  0  0  0  0  0  0  0  0  0  0
   37.3909   23.5107    4.0407 H   0  0  0  0  0  0  0  0  0  0  0  0
   37.3996   23.1389    5.7675 H   0  0  0  0  0  0  0  0  0  0  0  0
   37.1464   25.5624    6.2918 H   0  0  0  0  0  0  0  0  0  0  0  0
   37.1550   25.9537    4.5656 H   0  0  0  0  0  0  0  0  0  0  0  0
   39.4723   25.0184    4.3545 H   0  0  0  0  0  0  0  0  0  0  0  0
   39.4880   24.6320    6.0724 H   0  0  0  0  0  0  0  0  0  0  0  0
   98.1811    1.1915   31.7052 H   0  0  0  0  0  0  0  0  0  0  0  0
  1  2  1  0  0  0  0
  1 82  1  0  0  0  0
  1 83  1  0  0  0  0
  1 84  1  0  0  0  0
  2  3  1  0  0  0  0
  2 85  1  0  0  0  0
  2 86  1  0  0  0  0
  3  4  1  0  0  0  0
  3 87  1  0  0  0  0
  3 88  1  0  0  0  0
  4  5  1  0  0  0  0
  4 89  1  0  0  0  0
  4 90  1  0  0  0  0
  5  6  1  0  0  0  0
  5 91  1  0  0  0  0
  5 92  1  0  0  0  0
  6  7  1  0  0  0  0
  6 93  1  0  0  0  0
  6 94  1  0  0  0  0
  7  8  1  0  0  0  0
  7 95  1  0  0  0  0
  7 96  1  0  0  0  0
  8  9  1  0  0  0  0
  8 97  1  0  0  0  0
  8 98  1  0  0  0  0
  9 10  1  0  0  0  0
  9 99  1  0  0  0  0
  9100  1  0  0  0  0
 10 11  1  0  0  0  0
 10101  1  0  0  0  0
 10102  1  0  0  0  0
 11 12  1  0  0  0  0
 11103  1  0  0  0  0
 11104  1  0  0  0  0
 12 13  1  0  0  0  0
 12105  1  0  0  0  0
 12106  1  0  0  0  0
 13 14  1  0  0  0  0
 13107  1  0  0  0  0
 13108  1  0  0  0  0
 14 15  1  0  0  0  0
 14109  1  0  0  0  0
 14110  1  0  0  0  0
 15 16  1  0  0  0  0
 15111  1  0  0  0  0
 15112  1  0  0  0  0
 16 17  1  0  0  0  0
 16113  1  0  0  0  0
 16114  1  0  0  0  0
 17 18  1  0  0  0  0
 17115  1  0  0  0  0
 17116  1  0  0  0  0
 18 19  1  0  0  0  0
 18117  1  0  0  0  0
 18118  1  0  0  0  0
 19 20  1  0  0  0  0
 19119  1  0  0  0  0
 19120  1  0  0  0  0
 20 21  1  0  0  0  0
 20121  1  0  0  0  0
 20122  1  0  0  0  0
 21 22  1  0  0  0  0
 21123  1  0  0  0  0
 21124  1  0  0  0  0
 22 23  1  0  0  0  0
 22125  1  0  0  0  0
 22126  1  0  0  0  0
 23 24  1  0  0  0  0
 23127  1  0  0  0  0
 23128  1  0  0  0  0
 24 25  1  0  0  0  0
 24129  1  0  0  0  0
 24130  1  0  0  0  0
 25 26  1  0  0  0  0
 25131  1  0  0  0  0
 25132  1  0  0  0  0
 26 27  1  0  0  0  0
 26133  1  0  0  0  0
 26134  1  0  0  0  0
 27 28  1  0  0  0  0
 27135  1  0  0  0  0
 27136  1  0  0  0  0
 28 29  1  0  0  0  0
 28137  1  0  0  0  0
 28138  1  0  0  0  0
 29 30  1  0  0  0  0
 29139  1  0  0  0  0
 29140  1  0  0  0  0
 30 31  1  0  0  0  0
 30141  1  0  0  0  0
 30142  1  0  0  0  0
 31 32  1  0  0  0  0
 31143  1  0  0  0  0
 31144  1  0  0  0  0
 32 33  1  0  0  0  0
 32145  1  0  0  0  0
 32146  1  0  0  0  0
 33 34  1  0  0  0  0
 33147  1  0  0  0  0
 33148  1  0  0  0  0
 34 35  1  0  0  0  0
 34149  1  0  0  0  0
 34150  1  0  0  0  0
 35 36  1  0  0  0  0
 35151  1  0  0  0  0
 35152  1  0  0  0  0
 36 37  1  0  0  0  0
 36153  1  0  0  0  0
 36154  1  0  0  0  0
 37 38  1  0  0  0  0
 37155  1  0  0  0  0
 37156  1  0  0  0  0
 38 39  1  0  0  0  0
 38157  1  0  0  0  0
 38158  1  0  0  0  0
 39 40  1  0  0  0  0
 40 41  1  0  0  0  0
 41 42  1  0  0  0  0
 42 43  1  0  0  0  0
 43 44  1  0  0  0  0
 44 45  1  0  0  0  0
 45 46  1  0  0  0  0
 46 47  1  0  0  0  0
 47 48  1  0  0  0  0
 48 49  1  0  0  0  0
 49 50  1  0  0  0  0
 50 51  1  0  0  0  0
 51 52  1  0  0  0  0
 52 53  1  0  0  0  0
 53 54  1  0  0  0  0
 54 55  1  0  0  0  0
 55 56  1  0  0  0  0
 56 57  1  0  0  0  0
 57 58  1  0  0  0  0
 58 59  1  0  0  0  0
 59 60  1  0  0  0  0
 60 61  1  0  0  0  0
 61 62  1  0  0  0  0
 62 63  1  0  0  0  0
 63 64  1  0  0  0  0
 64 65  1  0  0  0  0
 65 66  1  0  0  0  0
 66 67  1  0  0  0  0
 67 68  1  0  0  0  0
 68 69  1  0  0  0  0
 69 70  1  0  0  0  0
 70 71  1  0  0  0  0
 71 72  1  0  0  0  0
 72 73  1  0  0  0  0
 73 74  1  0  0  0  0
 74 75  1  0  0  0  0
 75 76  1  0  0  0  0
 76 77  1  0  0  0  0
 77 78  1  0  0  0  0
 78 79  1  0  0  0  0
 79 80  1  0  0  0  0
 80 81  1  0  0  0  0
 81159  1  0  0  0  0
M  END
$$$$
