
 OpenBabel04232216443D

 48 49  0  0  0  0  0  0  0  0999 V2000
   17.3275    1.5194    0.5500 C   0  0  0  0  0  0  0  0  0  0  0  0
   15.9020    1.0067    0.2453 C   0  0  0  0  0  0  0  0  0  0  0  0
   15.9450   -0.5349   -0.3964 C   0  0  0  0  0  0  0  0  0  0  0  0
   17.1718   -1.2152   -0.9596 C   0  0  0  0  0  0  0  0  0  0  0  0
   14.8592   -1.3130   -0.2106 C   0  0  0  0  0  0  0  0  0  0  0  0
   14.0115   -0.6819    0.7933 C   0  0  0  0  0  0  0  0  0  0  0  0
   14.3049   -2.4544   -1.0419 C   0  0  0  0  0  0  0  0  0  0  0  0
   12.9731   -2.7918   -0.9919 C   0  0  0  0  0  0  0  0  0  0  0  0
   12.2161   -2.3147    0.0333 N   0  0  0  0  0  0  0  0  0  0  0  0
   12.0972   -3.5893   -1.8609 C   0  0  0  0  0  0  0  0  0  0  0  0
   12.7446   -4.8043   -2.5142 C   0  0  0  0  0  0  0  0  0  0  0  0
   10.7755   -3.3148   -1.8577 C   0  0  0  0  0  0  0  0  0  0  0  0
    9.4752   -3.7225   -2.1248 C   0  0  0  0  0  0  0  0  0  0  0  0
    9.6094   -5.0578   -2.7553 C   0  0  0  0  0  0  0  0  0  0  0  0
    9.5878   -2.5201   -1.5313 C   0  0  0  0  0  0  0  0  0  0  0  0
   10.0824   -1.3691   -1.0164 N   0  0  0  0  0  0  0  0  0  0  0  0
    9.5588   -0.3020   -0.3984 C   0  0  0  0  0  0  0  0  0  0  0  0
   10.5703    0.8769    0.0628 C   0  0  0  0  0  0  0  0  0  0  0  0
   11.7476    0.6295   -0.7412 C   0  0  0  0  0  0  0  0  0  0  0  0
   10.8895    1.9172    0.8935 C   0  0  0  0  0  0  0  0  0  0  0  0
   12.3644    2.5462    1.1232 C   0  0  0  0  0  0  0  0  0  0  0  0
   13.7542    2.4610    1.0147 C   0  0  0  0  0  0  0  0  0  0  0  0
   14.9918    1.8662    0.6722 N   0  0  0  0  0  0  0  0  0  0  0  0
   18.1226    0.8412    0.2581 H   0  0  0  0  0  0  0  0  0  0  0  0
   17.4313    1.6576    1.6325 H   0  0  0  0  0  0  0  0  0  0  0  0
   17.5045    2.4730    0.0472 H   0  0  0  0  0  0  0  0  0  0  0  0
   18.1343   -0.7684   -0.7168 H   0  0  0  0  0  0  0  0  0  0  0  0
   17.1123   -1.3396   -2.0426 H   0  0  0  0  0  0  0  0  0  0  0  0
   17.2434   -2.2262   -0.5208 H   0  0  0  0  0  0  0  0  0  0  0  0
   14.4897   -0.1500    1.6057 H   0  0  0  0  0  0  0  0  0  0  0  0
   13.3234   -1.2861    1.3522 H   0  0  0  0  0  0  0  0  0  0  0  0
   13.6526    0.0600    0.1049 H   0  0  0  0  0  0  0  0  0  0  0  0
   14.9585   -2.8582   -1.8164 H   0  0  0  0  0  0  0  0  0  0  0  0
   11.6007   -1.6453   -0.4508 H   0  0  0  0  0  0  0  0  0  0  0  0
   11.5087   -2.9619    0.3542 H   0  0  0  0  0  0  0  0  0  0  0  0
   13.8396   -4.7496   -2.5281 H   0  0  0  0  0  0  0  0  0  0  0  0
   12.4432   -4.9212   -3.5611 H   0  0  0  0  0  0  0  0  0  0  0  0
   12.4985   -5.7321   -1.9747 H   0  0  0  0  0  0  0  0  0  0  0  0
    8.6218   -5.4880   -2.9545 H   0  0  0  0  0  0  0  0  0  0  0  0
   10.1033   -5.7790   -2.0989 H   0  0  0  0  0  0  0  0  0  0  0  0
   10.1307   -5.0267   -3.7223 H   0  0  0  0  0  0  0  0  0  0  0  0
    8.4922   -0.2064   -0.1616 H   0  0  0  0  0  0  0  0  0  0  0  0
   11.6492    0.0774   -1.6599 H   0  0  0  0  0  0  0  0  0  0  0  0
   12.0965    0.0186    0.0633 H   0  0  0  0  0  0  0  0  0  0  0  0
   12.3509    1.5014   -0.9697 H   0  0  0  0  0  0  0  0  0  0  0  0
   10.1368    2.3845    1.5401 H   0  0  0  0  0  0  0  0  0  0  0  0
   12.1062    3.4886    1.6463 H   0  0  0  0  0  0  0  0  0  0  0  0
   14.1207    3.3872    1.4925 H   0  0  0  0  0  0  0  0  0  0  0  0
  1  2  1  0  0  0  0
  1 24  1  0  0  0  0
  1 25  1  0  0  0  0
  1 26  1  0  0  0  0
  2  3  1  0  0  0  0
  2 23  2  3  0  0  0
  3  4  1  0  0  0  0
  3  5  2  3  0  0  0
  4 27  1  0  0  0  0
  4 28  1  0  0  0  0
  4 29  1  0  0  0  0
  5  6  1  0  0  0  0
  5  7  1  0  0  0  0
  6 30  1  0  0  0  0
  6 31  1  0  0  0  0
  6 32  1  0  0  0  0
  7  8  2  3  0  0  0
  7 33  1  0  0  0  0
  8  9  1  0  0  0  0
  8 10  1  0  0  0  0
  9 34  1  0  0  0  0
  9 35  1  0  0  0  0
 10 11  1  0  0  0  0
 10 12  2  3  0  0  0
 11 36  1  0  0  0  0
 11 37  1  0  0  0  0
 11 38  1  0  0  0  0
 12 13  1  0  0  0  0
 12 15  1  0  0  0  0
 13 14  1  0  0  0  0
 13 15  2  0  0  0  0
 14 39  1  0  0  0  0
 14 40  1  0  0  0  0
 14 41  1  0  0  0  0
 15 16  1  0  0  0  0
 16 17  2  3  0  0  0
 17 18  1  0  0  0  0
 17 42  1  0  0  0  0
 18 19  1  0  0  0  0
 18 20  2  3  0  0  0
 19 43  1  0  0  0  0
 19 44  1  0  0  0  0
 19 45  1  0  0  0  0
 20 21  1  0  0  0  0
 20 46  1  0  0  0  0
 21 22  2  3  0  0  0
 21 47  1  0  0  0  0
 22 23  1  0  0  0  0
 22 48  1  0  0  0  0
M  END
$$$$
