
 OpenBabel04232216403D

232231  0  0  0  0  0  0  0  0999 V2000
    1.4657   -0.8208   -0.5820 C   0  0  0  0  0  0  0  0  0  0  0  0
    2.3273   -0.0717    0.1154 C   0  0  0  0  0  0  0  0  0  0  0  0
    3.1069   -0.6028    1.2820 C   0  0  0  0  0  0  0  0  0  0  0  0
    4.6123   -0.4969    1.0327 C   0  0  0  0  0  0  0  0  0  0  0  0
    5.3507   -1.0217    2.1879 N   0  0  0  0  0  0  0  0  0  0  0  0
    6.7262   -0.9061    1.9296 N   0  0  0  0  0  0  0  0  0  0  0  0
    7.4082   -1.4222    3.0389 N   0  0  0  0  0  0  0  0  0  0  0  0
    8.7919   -1.3291    2.8138 N   0  0  0  0  0  0  0  0  0  0  0  0
    9.5107   -1.8324    3.9250 N   0  0  0  0  0  0  0  0  0  0  0  0
   10.9089   -1.7377    3.6956 N   0  0  0  0  0  0  0  0  0  0  0  0
   11.6281   -2.2488    4.8045 N   0  0  0  0  0  0  0  0  0  0  0  0
   13.0269   -2.1457    4.5599 N   0  0  0  0  0  0  0  0  0  0  0  0
   13.7347   -2.6778    5.7179 C   0  0  0  0  0  0  0  0  0  0  0  0
   15.2341   -2.5680    5.4692 C   0  0  0  0  0  0  0  0  0  0  0  0
   16.0058   -3.1189    6.6596 C   0  0  0  0  0  0  0  0  0  0  0  0
   17.5014   -3.0093    6.4145 C   0  0  0  0  0  0  0  0  0  0  0  0
   18.2669   -3.5613    7.6043 C   0  0  0  0  0  0  0  0  0  0  0  0
   19.7604   -3.4488    7.3580 C   0  0  0  0  0  0  0  0  0  0  0  0
   20.5240   -3.9988    8.5483 C   0  0  0  0  0  0  0  0  0  0  0  0
   22.0165   -3.8840    8.3017 C   0  0  0  0  0  0  0  0  0  0  0  0
   22.7794   -4.4322    9.4927 C   0  0  0  0  0  0  0  0  0  0  0  0
   24.2715   -4.3190    9.2451 C   0  0  0  0  0  0  0  0  0  0  0  0
   25.0341   -4.8690   10.4352 C   0  0  0  0  0  0  0  0  0  0  0  0
   26.5261   -4.7540   10.1883 C   0  0  0  0  0  0  0  0  0  0  0  0
   27.2886   -5.3040   11.3784 C   0  0  0  0  0  0  0  0  0  0  0  0
   28.7805   -5.1871   11.1323 C   0  0  0  0  0  0  0  0  0  0  0  0
   29.5430   -5.7371   12.3224 C   0  0  0  0  0  0  0  0  0  0  0  0
   31.0349   -5.6202   12.0763 C   0  0  0  0  0  0  0  0  0  0  0  0
   31.7974   -6.1702   13.2664 C   0  0  0  0  0  0  0  0  0  0  0  0
   33.2893   -6.0533   13.0203 C   0  0  0  0  0  0  0  0  0  0  0  0
   34.0518   -6.6033   14.2104 C   0  0  0  0  0  0  0  0  0  0  0  0
   35.5437   -6.4864   13.9643 C   0  0  0  0  0  0  0  0  0  0  0  0
   36.3062   -7.0382   15.1536 C   0  0  0  0  0  0  0  0  0  0  0  0
   37.7982   -6.9213   14.9075 C   0  0  0  0  0  0  0  0  0  0  0  0
   38.5606   -7.4731   16.0967 C   0  0  0  0  0  0  0  0  0  0  0  0
   40.0526   -7.3563   15.8506 C   0  0  0  0  0  0  0  0  0  0  0  0
   40.8150   -7.9099   17.0390 C   0  0  0  0  0  0  0  0  0  0  0  0
   42.3070   -7.7948   16.7921 C   0  0  0  0  0  0  0  0  0  0  0  0
   43.0694   -8.3467   17.9813 C   0  0  0  0  0  0  0  0  0  0  0  0
   44.5614   -8.2334   17.7335 C   0  0  0  0  0  0  0  0  0  0  0  0
   45.3238   -8.7871   18.9219 C   0  0  0  0  0  0  0  0  0  0  0  0
   46.8158   -8.6721   18.6750 C   0  0  0  0  0  0  0  0  0  0  0  0
   47.5782   -9.2257   19.8634 C   0  0  0  0  0  0  0  0  0  0  0  0
   49.0702   -9.1106   19.6164 C   0  0  0  0  0  0  0  0  0  0  0  0
   49.8327   -9.6643   20.8048 C   0  0  0  0  0  0  0  0  0  0  0  0
   51.3246   -9.5492   20.5579 C   0  0  0  0  0  0  0  0  0  0  0  0
   52.0871  -10.1029   21.7463 C   0  0  0  0  0  0  0  0  0  0  0  0
   53.5790   -9.9897   21.4985 C   0  0  0  0  0  0  0  0  0  0  0  0
   54.3415  -10.5451   22.6860 C   0  0  0  0  0  0  0  0  0  0  0  0
   55.8334  -10.4301   22.4391 C   0  0  0  0  0  0  0  0  0  0  0  0
   56.5959  -10.9856   23.6266 C   0  0  0  0  0  0  0  0  0  0  0  0
   58.0878  -10.8687   23.3805 C   0  0  0  0  0  0  0  0  0  0  0  0
   58.8503  -11.4259   24.5672 C   0  0  0  0  0  0  0  0  0  0  0  0
   60.3422  -11.3073   24.3220 C   0  0  0  0  0  0  0  0  0  0  0  0
   61.1047  -11.8628   25.5095 C   0  0  0  0  0  0  0  0  0  0  0  0
   62.5966  -11.7458   25.2635 C   0  0  0  0  0  0  0  0  0  0  0  0
   63.3591  -12.2995   26.4519 C   0  0  0  0  0  0  0  0  0  0  0  0
   64.8510  -12.1827   26.2058 C   0  0  0  0  0  0  0  0  0  0  0  0
   65.6135  -12.7381   27.3933 C   0  0  0  0  0  0  0  0  0  0  0  0
   67.1054  -12.6212   27.1473 C   0  0  0  0  0  0  0  0  0  0  0  0
   67.8679  -13.1767   28.3348 C   0  0  0  0  0  0  0  0  0  0  0  0
   69.3598  -13.0599   28.0887 C   0  0  0  0  0  0  0  0  0  0  0  0
   70.1223  -13.6153   29.2763 C   0  0  0  0  0  0  0  0  0  0  0  0
   71.6142  -13.4984   29.0302 C   0  0  0  0  0  0  0  0  0  0  0  0
   72.3767  -14.0539   30.2177 C   0  0  0  0  0  0  0  0  0  0  0  0
   73.8686  -13.9371   29.9716 C   0  0  0  0  0  0  0  0  0  0  0  0
   74.6311  -14.4925   31.1592 C   0  0  0  0  0  0  0  0  0  0  0  0
   76.1230  -14.3756   30.9131 C   0  0  0  0  0  0  0  0  0  0  0  0
   76.8855  -14.9293   32.1015 C   0  0  0  0  0  0  0  0  0  0  0  0
   78.3775  -14.8124   31.8555 C   0  0  0  0  0  0  0  0  0  0  0  0
   79.1400  -15.3661   33.0438 C   0  0  0  0  0  0  0  0  0  0  0  0
   80.6321  -15.2493   32.7979 C   0  0  0  0  0  0  0  0  0  0  0  0
   81.3948  -15.8029   33.9863 C   0  0  0  0  0  0  0  0  0  0  0  0
   82.8873  -15.6862   33.7406 C   0  0  0  0  0  0  0  0  0  0  0  0
   83.6507  -16.2381   34.9301 C   0  0  0  0  0  0  0  0  0  0  0  0
   85.1441  -16.1221   34.6858 C   0  0  0  0  0  0  0  0  0  0  0  0
   85.9094  -16.6745   35.8763 C   0  0  0  0  0  0  0  0  0  0  0  0
   87.4051  -16.5612   35.6333 C   0  0  0  0  0  0  0  0  0  0  0  0
   88.1803  -17.1106   36.8220 C   0  0  0  0  0  0  0  0  0  0  0  0
   89.6717  -16.9961   36.5763 C   0  0  0  0  0  0  0  0  0  0  0  0
    0.9184   -0.4094   -1.4212 H   0  0  0  0  0  0  0  0  0  0  0  0
    1.3052   -1.8613   -0.3198 H   0  0  0  0  0  0  0  0  0  0  0  0
    2.4791    0.9664   -0.1638 H   0  0  0  0  0  0  0  0  0  0  0  0
    2.8335   -1.6485    1.4689 H   0  0  0  0  0  0  0  0  0  0  0  0
    2.8290   -0.0320    2.1761 H   0  0  0  0  0  0  0  0  0  0  0  0
    4.8761    0.5555    0.8635 H   0  0  0  0  0  0  0  0  0  0  0  0
    4.8737   -1.0594    0.1264 H   0  0  0  0  0  0  0  0  0  0  0  0
    5.0969   -1.9994    2.3251 H   0  0  0  0  0  0  0  0  0  0  0  0
    6.9749    0.0736    1.8027 H   0  0  0  0  0  0  0  0  0  0  0  0
    7.1114   -2.3861    3.1527 H   0  0  0  0  0  0  0  0  0  0  0  0
    8.9864   -0.3418    2.6758 H   0  0  0  0  0  0  0  0  0  0  0  0
    9.2425   -2.8078    4.0346 H   0  0  0  0  0  0  0  0  0  0  0  0
   11.1375   -0.7549    3.5604 H   0  0  0  0  0  0  0  0  0  0  0  0
   11.3687   -3.2275    4.9213 H   0  0  0  0  0  0  0  0  0  0  0  0
   13.2599   -1.1611    4.4353 H   0  0  0  0  0  0  0  0  0  0  0  0
   13.4743   -3.7322    5.8757 H   0  0  0  0  0  0  0  0  0  0  0  0
   13.4718   -2.1228    6.6275 H   0  0  0  0  0  0  0  0  0  0  0  0
   15.5163   -1.5206    5.3024 H   0  0  0  0  0  0  0  0  0  0  0  0
   15.5088   -3.1258    4.5645 H   0  0  0  0  0  0  0  0  0  0  0  0
   15.7343   -4.1682    6.8285 H   0  0  0  0  0  0  0  0  0  0  0  0
   15.7379   -2.5644    7.5674 H   0  0  0  0  0  0  0  0  0  0  0  0
   17.7775   -1.9606    6.2493 H   0  0  0  0  0  0  0  0  0  0  0  0
   17.7738   -3.5635    5.5079 H   0  0  0  0  0  0  0  0  0  0  0  0
   17.9949   -4.6110    7.7702 H   0  0  0  0  0  0  0  0  0  0  0  0
   17.9966   -3.0085    8.5125 H   0  0  0  0  0  0  0  0  0  0  0  0
   20.0342   -2.3996    7.1918 H   0  0  0  0  0  0  0  0  0  0  0  0
   20.0329   -4.0031    6.4514 H   0  0  0  0  0  0  0  0  0  0  0  0
   20.2526   -5.0487    8.7142 H   0  0  0  0  0  0  0  0  0  0  0  0
   20.2518   -3.4456    9.4556 H   0  0  0  0  0  0  0  0  0  0  0  0
   22.2886   -2.8345    8.1348 H   0  0  0  0  0  0  0  0  0  0  0  0
   22.2897   -4.4386    7.3955 H   0  0  0  0  0  0  0  0  0  0  0  0
   22.5069   -5.4814    9.6607 H   0  0  0  0  0  0  0  0  0  0  0  0
   22.5077   -3.8768   10.3988 H   0  0  0  0  0  0  0  0  0  0  0  0
   24.5444   -3.2696    9.0785 H   0  0  0  0  0  0  0  0  0  0  0  0
   24.5434   -4.8733    8.3383 H   0  0  0  0  0  0  0  0  0  0  0  0
   24.7623   -5.9188   10.6009 H   0  0  0  0  0  0  0  0  0  0  0  0
   24.7614   -4.3156   11.3423 H   0  0  0  0  0  0  0  0  0  0  0  0
   26.7979   -3.7042   10.0226 H   0  0  0  0  0  0  0  0  0  0  0  0
   26.7989   -5.3073    9.2812 H   0  0  0  0  0  0  0  0  0  0  0  0
   27.0178   -6.3541   11.5432 H   0  0  0  0  0  0  0  0  0  0  0  0
   27.0148   -4.7515   12.2857 H   0  0  0  0  0  0  0  0  0  0  0  0
   29.0513   -4.1369   10.9675 H   0  0  0  0  0  0  0  0  0  0  0  0
   29.0543   -5.7395   10.2250 H   0  0  0  0  0  0  0  0  0  0  0  0
   29.2722   -6.7873   12.4872 H   0  0  0  0  0  0  0  0  0  0  0  0
   29.2692   -5.1847   13.2297 H   0  0  0  0  0  0  0  0  0  0  0  0
   31.3057   -4.5700   11.9115 H   0  0  0  0  0  0  0  0  0  0  0  0
   31.3088   -6.1726   11.1690 H   0  0  0  0  0  0  0  0  0  0  0  0
   31.5266   -7.2204   13.4312 H   0  0  0  0  0  0  0  0  0  0  0  0
   31.5236   -5.6178   14.1737 H   0  0  0  0  0  0  0  0  0  0  0  0
   33.5601   -5.0031   12.8556 H   0  0  0  0  0  0  0  0  0  0  0  0
   33.5631   -6.6057   12.1130 H   0  0  0  0  0  0  0  0  0  0  0  0
   33.7810   -7.6535   14.3751 H   0  0  0  0  0  0  0  0  0  0  0  0
   33.7780   -6.0509   15.1178 H   0  0  0  0  0  0  0  0  0  0  0  0
   35.8147   -5.4360   13.8009 H   0  0  0  0  0  0  0  0  0  0  0  0
   35.8174   -7.0376   13.0562 H   0  0  0  0  0  0  0  0  0  0  0  0
   36.0352   -8.0886   15.3169 H   0  0  0  0  0  0  0  0  0  0  0  0
   36.0326   -6.4870   16.0617 H   0  0  0  0  0  0  0  0  0  0  0  0
   38.0692   -5.8710   14.7441 H   0  0  0  0  0  0  0  0  0  0  0  0
   38.0717   -7.4725   13.9994 H   0  0  0  0  0  0  0  0  0  0  0  0
   38.2896   -8.5235   16.2600 H   0  0  0  0  0  0  0  0  0  0  0  0
   38.2871   -6.9220   17.0049 H   0  0  0  0  0  0  0  0  0  0  0  0
   40.3238   -6.3058   15.6887 H   0  0  0  0  0  0  0  0  0  0  0  0
   40.3259   -7.9063   14.9417 H   0  0  0  0  0  0  0  0  0  0  0  0
   40.5428   -8.9600   17.2019 H   0  0  0  0  0  0  0  0  0  0  0  0
   40.5426   -7.3589   17.9477 H   0  0  0  0  0  0  0  0  0  0  0  0
   42.5791   -6.7449   16.6279 H   0  0  0  0  0  0  0  0  0  0  0  0
   42.5794   -8.3470   15.8842 H   0  0  0  0  0  0  0  0  0  0  0  0
   42.7963   -9.3962   18.1464 H   0  0  0  0  0  0  0  0  0  0  0  0
   42.7980   -7.7937   18.8890 H   0  0  0  0  0  0  0  0  0  0  0  0
   44.8346   -7.1837   17.5698 H   0  0  0  0  0  0  0  0  0  0  0  0
   44.8327   -8.7854   16.8252 H   0  0  0  0  0  0  0  0  0  0  0  0
   45.0515   -9.8372   19.0847 H   0  0  0  0  0  0  0  0  0  0  0  0
   45.0516   -8.2361   19.8306 H   0  0  0  0  0  0  0  0  0  0  0  0
   47.0881   -7.6220   18.5122 H   0  0  0  0  0  0  0  0  0  0  0  0
   47.0881   -9.2230   17.7663 H   0  0  0  0  0  0  0  0  0  0  0  0
   47.3060  -10.2758   20.0262 H   0  0  0  0  0  0  0  0  0  0  0  0
   47.3060   -8.6747   20.7720 H   0  0  0  0  0  0  0  0  0  0  0  0
   49.3425   -8.0605   19.4536 H   0  0  0  0  0  0  0  0  0  0  0  0
   49.3425   -9.6616   18.7078 H   0  0  0  0  0  0  0  0  0  0  0  0
   49.5604  -10.7144   20.9676 H   0  0  0  0  0  0  0  0  0  0  0  0
   49.5604   -9.1133   21.7135 H   0  0  0  0  0  0  0  0  0  0  0  0
   51.5969   -8.4991   20.3951 H   0  0  0  0  0  0  0  0  0  0  0  0
   51.5968  -10.1002   19.6492 H   0  0  0  0  0  0  0  0  0  0  0  0
   51.8137  -11.1526   21.9099 H   0  0  0  0  0  0  0  0  0  0  0  0
   51.8158   -9.5510   22.6547 H   0  0  0  0  0  0  0  0  0  0  0  0
   53.8525   -8.9398   21.3362 H   0  0  0  0  0  0  0  0  0  0  0  0
   53.8501  -10.5404   20.5893 H   0  0  0  0  0  0  0  0  0  0  0  0
   54.0689  -11.5954   22.8474 H   0  0  0  0  0  0  0  0  0  0  0  0
   54.0694   -9.9954   23.5955 H   0  0  0  0  0  0  0  0  0  0  0  0
   56.1059   -9.3798   22.2778 H   0  0  0  0  0  0  0  0  0  0  0  0
   56.1055  -10.9798   21.5296 H   0  0  0  0  0  0  0  0  0  0  0  0
   56.3244  -12.0363   23.7871 H   0  0  0  0  0  0  0  0  0  0  0  0
   56.3228  -10.4368   24.5364 H   0  0  0  0  0  0  0  0  0  0  0  0
   58.3594   -9.8178   23.2215 H   0  0  0  0  0  0  0  0  0  0  0  0
   58.3608  -11.4163   22.4701 H   0  0  0  0  0  0  0  0  0  0  0  0
   58.5797  -12.4772   24.7254 H   0  0  0  0  0  0  0  0  0  0  0  0
   58.5763  -10.8793   25.4780 H   0  0  0  0  0  0  0  0  0  0  0  0
   60.6127  -10.2562   24.1625 H   0  0  0  0  0  0  0  0  0  0  0  0
   60.6164  -11.8551   23.4120 H   0  0  0  0  0  0  0  0  0  0  0  0
   60.8333  -12.9135   25.6701 H   0  0  0  0  0  0  0  0  0  0  0  0
   60.8314  -11.3139   26.4192 H   0  0  0  0  0  0  0  0  0  0  0  0
   62.8679  -10.6953   25.1016 H   0  0  0  0  0  0  0  0  0  0  0  0
   62.8700  -12.2958   24.3545 H   0  0  0  0  0  0  0  0  0  0  0  0
   63.0878  -13.3501   26.6137 H   0  0  0  0  0  0  0  0  0  0  0  0
   63.0858  -11.7496   27.3608 H   0  0  0  0  0  0  0  0  0  0  0  0
   65.1224  -11.1320   26.0453 H   0  0  0  0  0  0  0  0  0  0  0  0
   65.1242  -12.7315   25.2961 H   0  0  0  0  0  0  0  0  0  0  0  0
   65.3421  -13.7888   27.5538 H   0  0  0  0  0  0  0  0  0  0  0  0
   65.3403  -12.1893   28.3031 H   0  0  0  0  0  0  0  0  0  0  0  0
   67.3769  -11.5706   26.9868 H   0  0  0  0  0  0  0  0  0  0  0  0
   67.3786  -13.1700   26.2375 H   0  0  0  0  0  0  0  0  0  0  0  0
   67.5964  -14.2274   28.4953 H   0  0  0  0  0  0  0  0  0  0  0  0
   67.5947  -12.6279   29.2445 H   0  0  0  0  0  0  0  0  0  0  0  0
   69.6313  -12.0092   27.9282 H   0  0  0  0  0  0  0  0  0  0  0  0
   69.6330  -13.6086   27.1790 H   0  0  0  0  0  0  0  0  0  0  0  0
   69.8508  -14.6660   29.4367 H   0  0  0  0  0  0  0  0  0  0  0  0
   69.8491  -13.0665   30.1860 H   0  0  0  0  0  0  0  0  0  0  0  0
   71.8857  -12.4478   28.8697 H   0  0  0  0  0  0  0  0  0  0  0  0
   71.8874  -14.0472   28.1205 H   0  0  0  0  0  0  0  0  0  0  0  0
   72.1052  -15.1046   30.3782 H   0  0  0  0  0  0  0  0  0  0  0  0
   72.1035  -13.5051   31.1274 H   0  0  0  0  0  0  0  0  0  0  0  0
   74.1400  -12.8864   29.8112 H   0  0  0  0  0  0  0  0  0  0  0  0
   74.1418  -14.4859   29.0619 H   0  0  0  0  0  0  0  0  0  0  0  0
   74.3597  -15.5432   31.3197 H   0  0  0  0  0  0  0  0  0  0  0  0
   74.3579  -13.9437   32.0689 H   0  0  0  0  0  0  0  0  0  0  0  0
   76.3943  -13.3251   30.7512 H   0  0  0  0  0  0  0  0  0  0  0  0
   76.3964  -14.9256   30.0042 H   0  0  0  0  0  0  0  0  0  0  0  0
   76.6143  -15.9798   32.2634 H   0  0  0  0  0  0  0  0  0  0  0  0
   76.6121  -14.3793   33.0104 H   0  0  0  0  0  0  0  0  0  0  0  0
   78.6487  -13.7619   31.6935 H   0  0  0  0  0  0  0  0  0  0  0  0
   78.6508  -15.3624   30.9465 H   0  0  0  0  0  0  0  0  0  0  0  0
   78.8687  -16.4166   33.2057 H   0  0  0  0  0  0  0  0  0  0  0  0
   78.8666  -14.8161   33.9528 H   0  0  0  0  0  0  0  0  0  0  0  0
   80.9031  -14.1987   32.6359 H   0  0  0  0  0  0  0  0  0  0  0  0
   80.9053  -15.7992   31.8889 H   0  0  0  0  0  0  0  0  0  0  0  0
   81.1234  -16.8534   34.1482 H   0  0  0  0  0  0  0  0  0  0  0  0
   81.1212  -15.2528   34.8951 H   0  0  0  0  0  0  0  0  0  0  0  0
   83.1578  -14.6357   33.5770 H   0  0  0  0  0  0  0  0  0  0  0  0
   83.1604  -16.2372   32.8322 H   0  0  0  0  0  0  0  0  0  0  0  0
   83.3787  -17.2882   35.0931 H   0  0  0  0  0  0  0  0  0  0  0  0
   83.3761  -15.6868   35.8378 H   0  0  0  0  0  0  0  0  0  0  0  0
   85.4141  -15.0714   34.5216 H   0  0  0  0  0  0  0  0  0  0  0  0
   85.4167  -16.6729   33.7769 H   0  0  0  0  0  0  0  0  0  0  0  0
   85.6348  -17.7238   36.0394 H   0  0  0  0  0  0  0  0  0  0  0  0
   85.6342  -16.1218   36.7830 H   0  0  0  0  0  0  0  0  0  0  0  0
   87.6733  -15.5108   35.4653 H   0  0  0  0  0  0  0  0  0  0  0  0
   87.6741  -17.1131   34.7242 H   0  0  0  0  0  0  0  0  0  0  0  0
   87.9133  -18.1608   36.9888 H   0  0  0  0  0  0  0  0  0  0  0  0
   87.9124  -16.5579   37.7301 H   0  0  0  0  0  0  0  0  0  0  0  0
   89.9606  -17.5606   35.6839 H   0  0  0  0  0  0  0  0  0  0  0  0
   90.2281  -17.3908   37.4303 H   0  0  0  0  0  0  0  0  0  0  0  0
   89.9597  -15.9504   36.4286 H   0  0  0  0  0  0  0  0  0  0  0  0
  1  2  2  0  0  0  0
  1 81  1  0  0  0  0
  1 82  1  0  0  0  0
  2  3  1  0  0  0  0
  2 83  1  0  0  0  0
  3  4  1  0  0  0  0
  3 84  1  0  0  0  0
  3 85  1  0  0  0  0
  4  5  1  0  0  0  0
  4 86  1  0  0  0  0
  4 87  1  0  0  0  0
  5  6  1  0  0  0  0
  5 88  1  0  0  0  0
  6  7  1  0  0  0  0
  6 89  1  0  0  0  0
  7  8  1  0  0  0  0
  7 90  1  0  0  0  0
  8  9  1  0  0  0  0
  8 91  1  0  0  0  0
  9 10  1  0  0  0  0
  9 92  1  0  0  0  0
 10 11  1  0  0  0  0
 10 93  1  0  0  0  0
 11 12  1  0  0  0  0
 11 94  1  0  0  0  0
 12 13  1  0  0  0  0
 12 95  1  0  0  0  0
 13 14  1  0  0  0  0
 13 96  1  0  0  0  0
 13 97  1  0  0  0  0
 14 15  1  0  0  0  0
 14 98  1  0  0  0  0
 14 99  1  0  0  0  0
 15 16  1  0  0  0  0
 15100  1  0  0  0  0
 15101  1  0  0  0  0
 16 17  1  0  0  0  0
 16102  1  0  0  0  0
 16103  1  0  0  0  0
 17 18  1  0  0  0  0
 17104  1  0  0  0  0
 17105  1  0  0  0  0
 18 19  1  0  0  0  0
 18106  1  0  0  0  0
 18107  1  0  0  0  0
 19 20  1  0  0  0  0
 19108  1  0  0  0  0
 19109  1  0  0  0  0
 20 21  1  0  0  0  0
 20110  1  0  0  0  0
 20111  1  0  0  0  0
 21 22  1  0  0  0  0
 21112  1  0  0  0  0
 21113  1  0  0  0  0
 22 23  1  0  0  0  0
 22114  1  0  0  0  0
 22115  1  0  0  0  0
 23 24  1  0  0  0  0
 23116  1  0  0  0  0
 23117  1  0  0  0  0
 24 25  1  0  0  0  0
 24118  1  0  0  0  0
 24119  1  0  0  0  0
 25 26  1  0  0  0  0
 25120  1  0  0  0  0
 25121  1  0  0  0  0
 26 27  1  0  0  0  0
 26122  1  0  0  0  0
 26123  1  0  0  0  0
 27 28  1  0  0  0  0
 27124  1  0  0  0  0
 27125  1  0  0  0  0
 28 29  1  0  0  0  0
 28126  1  0  0  0  0
 28127  1  0  0  0  0
 29 30  1  0  0  0  0
 29128  1  0  0  0  0
 29129  1  0  0  0  0
 30 31  1  0  0  0  0
 30130  1  0  0  0  0
 30131  1  0  0  0  0
 31 32  1  0  0  0  0
 31132  1  0  0  0  0
 31133  1  0  0  0  0
 32 33  1  0  0  0  0
 32134  1  0  0  0  0
 32135  1  0  0  0  0
 33 34  1  0  0  0  0
 33136  1  0  0  0  0
 33137  1  0  0  0  0
 34 35  1  0  0  0  0
 34138  1  0  0  0  0
 34139  1  0  0  0  0
 35 36  1  0  0  0  0
 35140  1  0  0  0  0
 35141  1  0  0  0  0
 36 37  1  0  0  0  0
 36142  1  0  0  0  0
 36143  1  0  0  0  0
 37 38  1  0  0  0  0
 37144  1  0  0  0  0
 37145  1  0  0  0  0
 38 39  1  0  0  0  0
 38146  1  0  0  0  0
 38147  1  0  0  0  0
 39 40  1  0  0  0  0
 39148  1  0  0  0  0
 39149  1  0  0  0  0
 40 41  1  0  0  0  0
 40150  1  0  0  0  0
 40151  1  0  0  0  0
 41 42  1  0  0  0  0
 41152  1  0  0  0  0
 41153  1  0  0  0  0
 42 43  1  0  0  0  0
 42154  1  0  0  0  0
 42155  1  0  0  0  0
 43 44  1  0  0  0  0
 43156  1  0  0  0  0
 43157  1  0  0  0  0
 44 45  1  0  0  0  0
 44158  1  0  0  0  0
 44159  1  0  0  0  0
 45 46  1  0  0  0  0
 45160  1  0  0  0  0
 45161  1  0  0  0  0
 46 47  1  0  0  0  0
 46162  1  0  0  0  0
 46163  1  0  0  0  0
 47 48  1  0  0  0  0
 47164  1  0  0  0  0
 47165  1  0  0  0  0
 48 49  1  0  0  0  0
 48166  1  0  0  0  0
 48167  1  0  0  0  0
 49 50  1  0  0  0  0
 49168  1  0  0  0  0
 49169  1  0  0  0  0
 50 51  1  0  0  0  0
 50170  1  0  0  0  0
 50171  1  0  0  0  0
 51 52  1  0  0  0  0
 51172  1  0  0  0  0
 51173  1  0  0  0  0
 52 53  1  0  0  0  0
 52174  1  0  0  0  0
 52175  1  0  0  0  0
 53 54  1  0  0  0  0
 53176  1  0  0  0  0
 53177  1  0  0  0  0
 54 55  1  0  0  0  0
 54178  1  0  0  0  0
 54179  1  0  0  0  0
 55 56  1  0  0  0  0
 55180  1  0  0  0  0
 55181  1  0  0  0  0
 56 57  1  0  0  0  0
 56182  1  0  0  0  0
 56183  1  0  0  0  0
 57 58  1  0  0  0  0
 57184  1  0  0  0  0
 57185  1  0  0  0  0
 58 59  1  0  0  0  0
 58186  1  0  0  0  0
 58187  1  0  0  0  0
 59 60  1  0  0  0  0
 59188  1  0  0  0  0
 59189  1  0  0  0  0
 60 61  1  0  0  0  0
 60190  1  0  0  0  0
 60191  1  0  0  0  0
 61 62  1  0  0  0  0
 61192  1  0  0  0  0
 61193  1  0  0  0  0
 62 63  1  0  0  0  0
 62194  1  0  0  0  0
 62195  1  0  0  0  0
 63 64  1  0  0  0  0
 63196  1  0  0  0  0
 63197  1  0  0  0  0
 64 65  1  0  0  0  0
 64198  1  0  0  0  0
 64199  1  0  0  0  0
 65 66  1  0  0  0  0
 65200  1  0  0  0  0
 65201  1  0  0  0  0
 66 67  1  0  0  0  0
 66202  1  0  0  0  0
 66203  1  0  0  0  0
 67 68  1  0  0  0  0
 67204  1  0  0  0  0
 67205  1  0  0  0  0
 68 69  1  0  0  0  0
 68206  1  0  0  0  0
 68207  1  0  0  0  0
 69 70  1  0  0  0  0
 69208  1  0  0  0  0
 69209  1  0  0  0  0
 70 71  1  0  0  0  0
 70210  1  0  0  0  0
 70211  1  0  0  0  0
 71 72  1  0  0  0  0
 71212  1  0  0  0  0
 71213  1  0  0  0  0
 72 73  1  0  0  0  0
 72214  1  0  0  0  0
 72215  1  0  0  0  0
 73 74  1  0  0  0  0
 73216  1  0  0  0  0
 73217  1  0  0  0  0
 74 75  1  0  0  0  0
 74218  1  0  0  0  0
 74219  1  0  0  0  0
 75 76  1  0  0  0  0
 75220  1  0  0  0  0
 75221  1  0  0  0  0
 76 77  1  0  0  0  0
 76222  1  0  0  0  0
 76223  1  0  0  0  0
 77 78  1  0  0  0  0
 77224  1  0  0  0  0
 77225  1  0  0  0  0
 78 79  1  0  0  0  0
 78226  1  0  0  0  0
 78227  1  0  0  0  0
 79 80  1  0  0  0  0
 79228  1  0  0  0  0
 79229  1  0  0  0  0
 80230  1  0  0  0  0
 80231  1  0  0  0  0
 80232  1  0  0  0  0
M  END
$$$$
