
 OpenBabel04232216433D

 76 76  0  0  0  0  0  0  0  0999 V2000
   16.0132   -5.4686   -8.3454 C   0  0  0  0  0  0  0  0  0  0  0  0
   14.0212   -4.5551   -7.4600 C   0  0  0  0  0  0  0  0  0  0  0  0
   12.0309   -3.7710   -6.1750 C   0  0  0  0  0  0  0  0  0  0  0  0
   10.2994   -2.8986   -5.1971 C   0  0  0  0  0  0  0  0  0  0  0  0
    8.5000   -2.3593   -3.9014 C   0  0  0  0  0  0  0  0  0  0  0  0
    8.0197   -2.0211   -2.1887 C   0  0  0  0  0  0  0  0  0  0  0  0
    8.5429   -3.2856   -2.1745 C   0  0  0  0  0  0  0  0  0  0  0  0
    9.8363   -2.8105   -2.2622 C   0  0  0  0  0  0  0  0  0  0  0  0
   10.4949   -3.9628   -3.1535 C   0  0  0  0  0  0  0  0  0  0  0  0
   11.8035   -3.8877   -3.5269 C   0  0  0  0  0  0  0  0  0  0  0  0
   12.6591   -5.0068   -4.4456 C   0  0  0  0  0  0  0  0  0  0  0  0
   13.9383   -4.8461   -4.7487 C   0  0  0  0  0  0  0  0  0  0  0  0
   14.4909   -6.0795   -5.2804 C   0  0  0  0  0  0  0  0  0  0  0  0
   15.7439   -5.7377   -5.5300 C   0  0  0  0  0  0  0  0  0  0  0  0
   16.3637   -6.7473   -6.4652 C   0  0  0  0  0  0  0  0  0  0  0  0
   17.6852   -6.6403   -6.5962 C   0  0  0  0  0  0  0  0  0  0  0  0
   18.5835   -7.6924   -7.2253 C   0  0  0  0  0  0  0  0  0  0  0  0
   19.8034   -7.1801   -7.3111 C   0  0  0  0  0  0  0  0  0  0  0  0
   20.3351   -7.8914   -8.3673 C   0  0  0  0  0  0  0  0  0  0  0  0
   21.6085   -7.8110   -8.2533 C   0  0  0  0  0  0  0  0  0  0  0  0
   22.1362   -8.8634   -8.9273 C   0  0  0  0  0  0  0  0  0  0  0  0
   23.4394   -8.6140   -8.9662 C   0  0  0  0  0  0  0  0  0  0  0  0
   24.1604   -9.3798   -9.7757 C   0  0  0  0  0  0  0  0  0  0  0  0
   25.4491   -9.1877   -9.9964 C   0  0  0  0  0  0  0  0  0  0  0  0
   25.7408  -10.5386  -10.2221 C   0  0  0  0  0  0  0  0  0  0  0  0
   27.1227  -10.4223  -10.3992 C   0  0  0  0  0  0  0  0  0  0  0  0
   28.0672  -11.2617  -11.1758 C   0  0  0  0  0  0  0  0  0  0  0  0
   29.5162  -11.1673  -11.4694 C   0  0  0  0  0  0  0  0  0  0  0  0
   30.0118  -12.4343  -12.1383 C   0  0  0  0  0  0  0  0  0  0  0  0
   31.3100  -12.7146  -12.4989 C   0  0  0  0  0  0  0  0  0  0  0  0
   31.0495  -13.9319  -13.8518 C   0  0  0  0  0  0  0  0  0  0  0  0
   32.2508  -13.8104  -14.2178 C   0  0  0  0  0  0  0  0  0  0  0  0
   31.1367  -12.1440  -14.6520 C   0  0  0  0  0  0  0  0  0  0  0  0
   29.5075  -11.1041  -14.0219 C   0  0  0  0  0  0  0  0  0  0  0  0
   27.4258  -10.0916  -13.1977 C   0  0  0  0  0  0  0  0  0  0  0  0
   25.5111   -9.3567  -12.2740 C   0  0  0  0  0  0  0  0  0  0  0  0
   23.1727   -8.4325  -11.3732 C   0  0  0  0  0  0  0  0  0  0  0  0
   21.1633   -7.5852  -10.6710 N   0  0  0  0  0  0  0  0  0  0  0  0
   18.5354   -6.4685   -9.4612 S   0  0  0  0  0  0  0  0  0  0  0  0
   14.7394   -5.8890   -7.5713 H   0  0  0  0  0  0  0  0  0  0  0  0
   12.6812   -4.8020   -6.6545 H   0  0  0  0  0  0  0  0  0  0  0  0
   10.5261   -3.8131   -5.4116 H   0  0  0  0  0  0  0  0  0  0  0  0
    8.7434   -2.6461   -4.5699 H   0  0  0  0  0  0  0  0  0  0  0  0
    6.8967   -2.3618   -3.2521 H   0  0  0  0  0  0  0  0  0  0  0  0
    7.4885   -1.2475   -1.1552 H   0  0  0  0  0  0  0  0  0  0  0  0
    7.9235   -4.0273   -3.1515 H   0  0  0  0  0  0  0  0  0  0  0  0
   10.0157   -1.6692   -1.8230 H   0  0  0  0  0  0  0  0  0  0  0  0
    9.6809   -4.6372   -3.8870 H   0  0  0  0  0  0  0  0  0  0  0  0
   11.9452   -2.8498   -3.1204 H   0  0  0  0  0  0  0  0  0  0  0  0
   12.2381   -5.8488   -5.3045 H   0  0  0  0  0  0  0  0  0  0  0  0
   14.1899   -3.9132   -4.2800 H   0  0  0  0  0  0  0  0  0  0  0  0
   14.0531   -6.9616   -5.9671 H   0  0  0  0  0  0  0  0  0  0  0  0
   16.1321   -4.7593   -5.0368 H   0  0  0  0  0  0  0  0  0  0  0  0
   15.6966   -7.3071   -7.3105 H   0  0  0  0  0  0  0  0  0  0  0  0
   17.9752   -5.6977   -6.0434 H   0  0  0  0  0  0  0  0  0  0  0  0
   18.3823   -8.5750   -8.1307 H   0  0  0  0  0  0  0  0  0  0  0  0
   20.0322   -6.2460   -6.8113 H   0  0  0  0  0  0  0  0  0  0  0  0
   19.7875   -8.5169   -9.1811 H   0  0  0  0  0  0  0  0  0  0  0  0
   22.1813   -7.1486   -7.6771 H   0  0  0  0  0  0  0  0  0  0  0  0
   21.2431   -9.4733   -9.5052 H   0  0  0  0  0  0  0  0  0  0  0  0
   24.1899   -7.9490   -8.5794 H   0  0  0  0  0  0  0  0  0  0  0  0
   23.2719  -10.0368  -10.3022 H   0  0  0  0  0  0  0  0  0  0  0  0
   26.1593   -8.6097   -9.4128 H   0  0  0  0  0  0  0  0  0  0  0  0
   24.5815  -11.1641  -10.6190 H   0  0  0  0  0  0  0  0  0  0  0  0
   28.0253   -9.7674  -10.5520 H   0  0  0  0  0  0  0  0  0  0  0  0
   27.2166  -11.9012  -11.8363 H   0  0  0  0  0  0  0  0  0  0  0  0
   30.5844  -10.5913  -11.4006 H   0  0  0  0  0  0  0  0  0  0  0  0
   29.2505  -12.9059  -13.0315 H   0  0  0  0  0  0  0  0  0  0  0  0
   32.4667  -11.9801  -12.5069 H   0  0  0  0  0  0  0  0  0  0  0  0
   31.3527  -14.1476  -15.1453 H   0  0  0  0  0  0  0  0  0  0  0  0
   32.7007  -13.7299  -13.2686 H   0  0  0  0  0  0  0  0  0  0  0  0
   32.4972  -13.0757  -15.1737 H   0  0  0  0  0  0  0  0  0  0  0  0
   31.1654  -11.4424  -14.0371 H   0  0  0  0  0  0  0  0  0  0  0  0
   28.7344  -11.1255  -13.5298 H   0  0  0  0  0  0  0  0  0  0  0  0
   26.5625  -10.5611  -12.7485 H   0  0  0  0  0  0  0  0  0  0  0  0
   23.9447   -9.8030  -11.6327 H   0  0  0  0  0  0  0  0  0  0  0  0
  1  2  2  3  0  0  0
  1 39  1  0  0  0  0
  1 40  1  0  0  0  0
  2  3  1  0  0  0  0
  2 41  1  0  0  0  0
  3  4  2  3  0  0  0
  3 42  1  0  0  0  0
  4  5  1  0  0  0  0
  4 43  1  0  0  0  0
  5  6  2  3  0  0  0
  5 44  1  0  0  0  0
  6  7  1  0  0  0  0
  6 45  1  0  0  0  0
  7  8  2  3  0  0  0
  7 46  1  0  0  0  0
  8  9  1  0  0  0  0
  8 47  1  0  0  0  0
  9 10  2  3  0  0  0
  9 48  1  0  0  0  0
 10 11  1  0  0  0  0
 10 49  1  0  0  0  0
 11 12  2  3  0  0  0
 11 50  1  0  0  0  0
 12 13  1  0  0  0  0
 12 51  1  0  0  0  0
 13 14  2  3  0  0  0
 13 52  1  0  0  0  0
 14 15  1  0  0  0  0
 14 53  1  0  0  0  0
 15 16  2  3  0  0  0
 15 54  1  0  0  0  0
 16 17  1  0  0  0  0
 16 55  1  0  0  0  0
 17 18  2  3  0  0  0
 17 56  1  0  0  0  0
 18 19  1  0  0  0  0
 18 57  1  0  0  0  0
 19 20  2  3  0  0  0
 19 58  1  0  0  0  0
 20 21  1  0  0  0  0
 20 59  1  0  0  0  0
 21 22  2  3  0  0  0
 21 60  1  0  0  0  0
 22 23  1  0  0  0  0
 22 61  1  0  0  0  0
 23 24  2  3  0  0  0
 23 62  1  0  0  0  0
 24 25  1  0  0  0  0
 24 63  1  0  0  0  0
 25 26  2  3  0  0  0
 25 64  1  0  0  0  0
 26 27  1  0  0  0  0
 26 65  1  0  0  0  0
 27 28  2  3  0  0  0
 27 66  1  0  0  0  0
 28 29  1  0  0  0  0
 28 67  1  0  0  0  0
 29 30  2  3  0  0  0
 29 68  1  0  0  0  0
 30 31  1  0  0  0  0
 30 69  1  0  0  0  0
 31 32  2  3  0  0  0
 31 70  1  0  0  0  0
 32 33  1  0  0  0  0
 32 71  1  0  0  0  0
 33 34  2  3  0  0  0
 33 72  1  0  0  0  0
 34 35  1  0  0  0  0
 34 73  1  0  0  0  0
 35 36  2  3  0  0  0
 35 74  1  0  0  0  0
 36 37  1  0  0  0  0
 36 75  1  0  0  0  0
 37 38  2  3  0  0  0
 37 76  1  0  0  0  0
 38 39  1  0  0  0  0
M  END
$$$$
