
 OpenBabel04232216423D

 47 49  0  0  0  0  0  0  0  0999 V2000
   -0.8130    0.3772   -1.1074 C   0  0  0  0  0  0  0  0  0  0  0  0
   -2.1741    0.5528   -0.6389 C   0  0  0  0  0  3  0  0  0  0  0  0
   -2.6789    1.3377    0.5412 C   0  0  0  0  0  0  0  0  0  0  0  0
   -3.8888    1.2935    0.7879 O   0  0  0  0  0  0  0  0  0  0  0  0
   -1.7648    1.9847    1.3714 N   0  0  0  0  0  0  0  0  0  0  0  0
   -1.4743    1.3923    2.6895 C   0  0  0  0  0  0  0  0  0  0  0  0
   -1.1316    3.2389    1.1370 C   0  0  0  0  0  0  0  0  0  0  0  0
   -0.2025    3.4311    2.0351 N   0  0  0  0  0  0  0  0  0  0  0  0
    0.2384    4.6474    2.3815 C   0  0  0  0  0  0  0  0  0  0  0  0
    0.5318    5.6976    1.5874 C   0  0  0  0  0  0  0  0  0  0  0  0
   -0.3470    6.7299    2.0245 C   0  0  0  0  0  0  0  0  0  0  0  0
   -0.2418    8.0260    1.8129 C   0  0  0  0  0  0  0  0  0  0  0  0
   -1.2299    8.7803    2.5067 C   0  0  0  0  0  0  0  0  0  0  0  0
   -1.1134   10.0962    2.6174 C   0  0  0  0  0  0  0  0  0  0  0  0
   -2.3292   10.8447    2.8591 C   0  0  0  0  0  0  0  0  0  0  0  0
   -2.4882   11.6444    1.8144 C   0  0  0  0  0  0  0  0  0  0  0  0
   -3.0672   11.2603    0.6282 N   0  0  0  0  0  0  0  0  0  0  0  0
   -3.2368   10.0755    0.0424 C   0  0  0  0  0  0  0  0  0  0  0  0
   -3.0704    8.6779    0.3854 N   0  0  0  0  0  0  0  0  0  0  0  0
   -2.3794    7.7546   -0.3385 C   0  0  0  0  0  0  0  0  0  0  0  0
   -2.3064    6.2137   -0.0526 N   0  0  0  0  0  0  0  0  0  0  0  0
   -1.3047    5.4443   -0.5635 N   0  0  0  0  0  0  0  0  0  0  0  0
   -1.2201    3.7953   -0.1529 N   0  0  0  0  0  0  0  0  0  0  0  0
    0.0568    2.8909   -0.7877 C   0  0  0  0  0  0  0  0  0  0  0  0
    0.2493    1.1773   -0.4388 C   0  0  0  0  0  0  0  0  0  0  0  0
    0.5032    0.3607    0.8335 C   0  0  0  0  0  0  0  0  0  0  0  0
    1.7540    0.1002    0.4287 C   0  0  0  0  0  0  0  0  0  0  0  0
    1.6529    0.7631   -0.6658 O   0  0  0  0  0  0  0  0  0  0  0  0
   -0.5397   -0.6319   -1.4482 H   0  0  0  0  0  0  0  0  0  0  0  0
   -2.8993   -0.1593   -1.0287 H   0  0  0  0  0  0  0  0  0  0  0  0
   -1.9791    0.4391    2.8333 H   0  0  0  0  0  0  0  0  0  0  0  0
   -1.6817    2.1019    3.4944 H   0  0  0  0  0  0  0  0  0  0  0  0
   -0.3918    1.2140    2.7919 H   0  0  0  0  0  0  0  0  0  0  0  0
   -0.1336    4.8282    3.3931 H   0  0  0  0  0  0  0  0  0  0  0  0
    0.8495    5.6363    0.5737 H   0  0  0  0  0  0  0  0  0  0  0  0
   -1.2596    6.3874    2.5414 H   0  0  0  0  0  0  0  0  0  0  0  0
    0.5242    8.4704    1.1968 H   0  0  0  0  0  0  0  0  0  0  0  0
   -2.1614    8.2883    2.8085 H   0  0  0  0  0  0  0  0  0  0  0  0
   -0.2616   10.5821    2.1451 H   0  0  0  0  0  0  0  0  0  0  0  0
   -3.1763   10.2087    3.1236 H   0  0  0  0  0  0  0  0  0  0  0  0
   -1.7145   12.4233    1.7039 H   0  0  0  0  0  0  0  0  0  0  0  0
   -3.7379   10.2975   -0.9166 H   0  0  0  0  0  0  0  0  0  0  0  0
   -1.8175    8.1600   -1.2028 H   0  0  0  0  0  0  0  0  0  0  0  0
    0.9835    3.3597   -0.4419 H   0  0  0  0  0  0  0  0  0  0  0  0
   -0.0155    2.9563   -1.8780 H   0  0  0  0  0  0  0  0  0  0  0  0
   -0.0443   -0.3209    1.5029 H   0  0  0  0  0  0  0  0  0  0  0  0
    2.4867   -0.6263    0.8345 H   0  0  0  0  0  0  0  0  0  0  0  0
  1  2  1  0  0  0  0
  1 25  2  0  0  0  0
  1 29  1  0  0  0  0
  2  3  1  0  0  0  0
  2 30  1  0  0  0  0
  3  4  2  0  0  0  0
  3  5  1  0  0  0  0
  5  6  1  0  0  0  0
  5  7  1  0  0  0  0
  6 31  1  0  0  0  0
  6 32  1  0  0  0  0
  6 33  1  0  0  0  0
  7  8  2  3  0  0  0
  7 23  1  0  0  0  0
  8  9  1  0  0  0  0
  9 10  2  3  0  0  0
  9 34  1  0  0  0  0
 10 11  1  0  0  0  0
 10 35  1  0  0  0  0
 11 12  2  3  0  0  0
 11 36  1  0  0  0  0
 12 13  1  0  0  0  0
 12 37  1  0  0  0  0
 13 14  2  3  0  0  0
 13 38  1  0  0  0  0
 14 15  1  0  0  0  0
 14 39  1  0  0  0  0
 15 16  2  3  0  0  0
 15 40  1  0  0  0  0
 16 17  1  0  0  0  0
 16 41  1  0  0  0  0
 17 18  2  3  0  0  0
 18 19  1  0  0  0  0
 18 42  1  0  0  0  0
 19 20  2  3  0  0  0
 20 21  1  0  0  0  0
 20 43  1  0  0  0  0
 21 22  2  3  0  0  0
 22 23  1  0  0  0  0
 23 24  1  0  0  0  0
 24 25  1  0  0  0  0
 24 44  1  0  0  0  0
 24 45  1  0  0  0  0
 25 26  1  0  0  0  0
 25 28  1  0  0  0  0
 26 27  2  0  0  0  0
 26 46  1  0  0  0  0
 27 28  1  0  0  0  0
 27 47  1  0  0  0  0
M  END
$$$$
