
 OpenBabel04232216423D

 38 39  0  0  0  0  0  0  0  0999 V2000
    4.0445   -0.3447    2.1370 C   0  0  0  0  0  0  0  0  0  0  0  0
    3.3887   -0.3316    0.9591 C   0  0  0  0  0  0  0  0  0  0  0  0
    3.5354   -1.2936   -0.1111 C   0  0  0  0  0  0  0  0  0  0  0  0
    4.7398   -1.5991   -0.6274 C   0  0  0  0  0  0  0  0  0  0  0  0
    5.6948   -0.4340   -0.8940 C   0  0  0  0  0  0  0  0  0  0  0  0
    5.1753   -2.9740   -0.7090 N   0  0  0  0  0  0  0  0  0  0  0  0
    4.4282   -3.9705    0.1862 C   0  0  0  0  0  0  0  0  0  0  0  0
    3.3846   -4.7418   -0.6051 C   0  0  0  0  0  0  0  0  0  0  0  0
    2.6541   -5.7301    0.2024 C   0  0  0  0  0  0  0  0  0  0  0  0
    1.5221   -6.5483   -0.1500 C   0  0  0  0  0  0  0  0  0  0  0  0
    1.6083   -7.0624    1.0891 C   0  0  0  0  0  0  0  0  0  0  0  0
    2.7167   -6.2224    1.3858 N   0  0  0  0  0  0  0  0  0  0  0  0
    6.5419   -3.2276   -0.9640 C   0  0  0  0  0  0  0  0  0  0  0  0
    7.3255   -4.2779   -0.6540 C   0  0  0  0  0  0  0  0  0  0  0  0
    8.5975   -3.7604   -0.0531 C   0  0  0  0  0  0  0  0  0  0  0  0
    8.6806   -3.8593    1.2461 N   0  0  0  0  0  0  0  0  0  0  0  0
    8.4011   -2.5807    1.7684 N   0  0  0  0  0  0  0  0  0  0  0  0
    7.1692   -2.5424    2.1670 C   0  0  0  0  0  0  0  0  0  0  0  0
    6.4233   -1.2637    2.3230 C   0  0  0  0  0  0  0  0  0  0  0  0
    5.1261   -1.2167    2.6825 C   0  0  0  0  0  0  0  0  0  0  0  0
    3.6062    0.3125    2.8905 H   0  0  0  0  0  0  0  0  0  0  0  0
    2.5496    0.3530    0.8347 H   0  0  0  0  0  0  0  0  0  0  0  0
    2.7115   -1.9995   -0.1285 H   0  0  0  0  0  0  0  0  0  0  0  0
    5.1767    0.5342   -0.8893 H   0  0  0  0  0  0  0  0  0  0  0  0
    6.1524   -0.5077   -1.8862 H   0  0  0  0  0  0  0  0  0  0  0  0
    6.4895   -0.3750   -0.1489 H   0  0  0  0  0  0  0  0  0  0  0  0
    3.9623   -3.4571    1.0403 H   0  0  0  0  0  0  0  0  0  0  0  0
    5.1229   -4.6555    0.6790 H   0  0  0  0  0  0  0  0  0  0  0  0
    3.8623   -5.2723   -1.4264 H   0  0  0  0  0  0  0  0  0  0  0  0
    2.6449   -4.0616   -1.0307 H   0  0  0  0  0  0  0  0  0  0  0  0
    0.8779   -6.7102   -1.0008 H   0  0  0  0  0  0  0  0  0  0  0  0
    1.0567   -7.8117    1.6499 H   0  0  0  0  0  0  0  0  0  0  0  0
    7.0576   -2.3177   -1.2578 H   0  0  0  0  0  0  0  0  0  0  0  0
    6.9611   -5.2081   -0.2478 H   0  0  0  0  0  0  0  0  0  0  0  0
    9.0323   -2.8743   -0.5659 H   0  0  0  0  0  0  0  0  0  0  0  0
    6.5694   -3.4785    2.2888 H   0  0  0  0  0  0  0  0  0  0  0  0
    7.0155   -0.3845    2.1204 H   0  0  0  0  0  0  0  0  0  0  0  0
    5.1572   -0.7403    3.6819 H   0  0  0  0  0  0  0  0  0  0  0  0
  1  2  2  0  0  0  0
  1 20  1  0  0  0  0
  1 21  1  0  0  0  0
  2  3  1  0  0  0  0
  2 22  1  0  0  0  0
  3  4  2  0  0  0  0
  3 23  1  0  0  0  0
  4  5  1  0  0  0  0
  4  6  1  0  0  0  0
  5 24  1  0  0  0  0
  5 25  1  0  0  0  0
  5 26  1  0  0  0  0
  6  7  1  0  0  0  0
  6 13  1  0  0  0  0
  7  8  1  0  0  0  0
  7 27  1  0  0  0  0
  7 28  1  0  0  0  0
  8  9  1  0  0  0  0
  8 29  1  0  0  0  0
  8 30  1  0  0  0  0
  9 10  1  0  0  0  0
  9 12  2  0  0  0  0
 10 11  2  0  0  0  0
 10 31  1  0  0  0  0
 11 12  1  0  0  0  0
 11 32  1  0  0  0  0
 13 14  2  0  0  0  0
 13 33  1  0  0  0  0
 14 15  1  0  0  0  0
 14 34  1  0  0  0  0
 15 16  2  0  0  0  0
 15 35  1  0  0  0  0
 16 17  1  0  0  0  0
 17 18  2  0  0  0  0
 18 19  1  0  0  0  0
 18 36  1  0  0  0  0
 19 20  2  0  0  0  0
 19 37  1  0  0  0  0
 20 38  1  0  0  0  0
M  END
$$$$
