
 OpenBabel04232216523D

 99 99  0  0  1  0  0  0  0  0999 V2000
    7.1539    2.0757    5.4598 C   0  0  0  0  0  0  0  0  0  0  0  0
    7.2589    2.9021    4.1883 C   0  0  0  0  0  0  0  0  0  0  0  0
    6.8065    2.1145    2.9519 C   0  0  0  0  0  0  0  0  0  0  0  0
    6.8876    2.9513    1.6460 C   0  0  3  0  0  0  0  0  0  0  0  0
    8.3881    3.2709    1.3594 C   0  0  0  0  0  0  0  0  0  0  0  0
    8.7765    4.7442    1.5878 C   0  0  0  0  0  0  0  0  0  0  0  0
    8.7935    5.5589    0.2847 C   0  0  0  0  0  0  0  0  0  0  0  0
    7.6047    6.5184    0.1608 C   0  0  0  0  0  0  0  0  0  0  0  0
    7.2493    6.7635   -1.3120 C   0  0  0  0  0  0  0  0  0  0  0  0
    5.7838    7.1863   -1.5126 C   0  0  0  0  0  0  0  0  0  0  0  0
    5.1190    6.4458   -2.6843 C   0  0  0  0  0  0  0  0  0  0  0  0
    4.3089    5.2040   -2.2675 C   0  0  0  0  0  0  0  0  0  0  0  0
    5.1274    4.1902   -1.4713 C   0  0  0  0  0  0  0  0  0  0  0  0
    4.3901    2.8752   -1.1950 C   0  0  0  0  0  0  0  0  0  0  0  0
    4.7124    2.2463    0.1975 C   0  0  3  0  0  0  0  0  0  0  0  0
    3.8452    2.8870    1.3089 C   0  0  0  0  0  0  0  0  0  0  0  0
    2.3416    2.5900    1.1503 C   0  0  0  0  0  0  0  0  0  0  0  0
    1.5137    3.1796    2.2939 C   0  0  0  0  0  0  0  0  0  0  0  0
    0.0209    2.9125    2.0803 C   0  0  0  0  0  0  0  0  0  0  0  0
   -0.8157    3.5272    3.1993 C   0  0  0  0  0  0  0  0  0  0  0  0
   -2.3090    3.2714    2.9936 C   0  0  0  0  0  0  0  0  0  0  0  0
   -3.1120    3.8916    4.1336 C   0  0  0  0  0  0  0  0  0  0  0  0
   -4.6105    3.6589    3.9704 C   0  0  0  0  0  0  0  0  0  0  0  0
   -5.3656    4.2947    5.1350 C   0  0  0  0  0  0  0  0  0  0  0  0
   -6.8704    4.0905    5.0062 C   0  0  0  0  0  0  0  0  0  0  0  0
   -7.5986    4.7356    6.1822 C   0  0  0  0  0  0  0  0  0  0  0  0
   -9.1056    4.5361    6.0642 C   0  0  0  0  0  0  0  0  0  0  0  0
   -9.8338    5.1827    7.2383 C   0  0  0  0  0  0  0  0  0  0  0  0
  -11.3429    4.9837    7.1217 C   0  0  0  0  0  0  0  0  0  0  0  0
  -12.0782    5.6249    8.2928 C   0  0  0  0  0  0  0  0  0  0  0  0
  -13.5839    5.4254    8.1751 C   0  0  0  0  0  0  0  0  0  0  0  0
  -14.3141    6.0671    9.3437 C   0  0  0  0  0  0  0  0  0  0  0  0
    6.2608    2.1804    0.4491 C   0  0  0  0  0  0  0  0  0  0  0  0
    7.4154    2.6890    6.3278 H   0  0  0  0  0  0  0  0  0  0  0  0
    7.8422    1.2238    5.4299 H   0  0  0  0  0  0  0  0  0  0  0  0
    6.1383    1.6957    5.6039 H   0  0  0  0  0  0  0  0  0  0  0  0
    8.2987    3.2278    4.0830 H   0  0  0  0  0  0  0  0  0  0  0  0
    6.6464    3.8047    4.2920 H   0  0  0  0  0  0  0  0  0  0  0  0
    5.7911    1.7501    3.1214 H   0  0  0  0  0  0  0  0  0  0  0  0
    7.4255    1.2132    2.8482 H   0  0  0  0  0  0  0  0  0  0  0  0
    6.3411    3.8908    1.7786 H   0  0  0  0  0  0  0  0  0  0  0  0
    8.6788    2.9584    0.3504 H   0  0  0  0  0  0  0  0  0  0  0  0
    9.0250    2.6612    2.0151 H   0  0  0  0  0  0  0  0  0  0  0  0
    9.7964    4.7558    1.9921 H   0  0  0  0  0  0  0  0  0  0  0  0
    8.1467    5.2151    2.3531 H   0  0  0  0  0  0  0  0  0  0  0  0
    8.8350    4.8792   -0.5719 H   0  0  0  0  0  0  0  0  0  0  0  0
    9.7154    6.1500    0.2436 H   0  0  0  0  0  0  0  0  0  0  0  0
    7.8465    7.4688    0.6437 H   0  0  0  0  0  0  0  0  0  0  0  0
    6.7382    6.1053    0.6933 H   0  0  0  0  0  0  0  0  0  0  0  0
    7.4569    5.8618   -1.8951 H   0  0  0  0  0  0  0  0  0  0  0  0
    7.9110    7.5386   -1.7162 H   0  0  0  0  0  0  0  0  0  0  0  0
    5.7708    8.2627   -1.7272 H   0  0  0  0  0  0  0  0  0  0  0  0
    5.1900    7.0528   -0.6023 H   0  0  0  0  0  0  0  0  0  0  0  0
    5.8679    6.1559   -3.4338 H   0  0  0  0  0  0  0  0  0  0  0  0
    4.4335    7.1337   -3.1914 H   0  0  0  0  0  0  0  0  0  0  0  0
    3.9028    4.7311   -3.1698 H   0  0  0  0  0  0  0  0  0  0  0  0
    3.4493    5.5258   -1.6653 H   0  0  0  0  0  0  0  0  0  0  0  0
    5.4226    4.6480   -0.5236 H   0  0  0  0  0  0  0  0  0  0  0  0
    6.0434    3.9596   -2.0289 H   0  0  0  0  0  0  0  0  0  0  0  0
    4.6665    2.1543   -1.9726 H   0  0  0  0  0  0  0  0  0  0  0  0
    3.3118    3.0192   -1.3149 H   0  0  0  0  0  0  0  0  0  0  0  0
    4.3852    1.1989    0.1257 H   0  0  0  0  0  0  0  0  0  0  0  0
    4.0035    3.9702    1.3402 H   0  0  0  0  0  0  0  0  0  0  0  0
    4.1339    2.4905    2.2831 H   0  0  0  0  0  0  0  0  0  0  0  0
    2.1861    1.5048    1.1144 H   0  0  0  0  0  0  0  0  0  0  0  0
    1.9611    3.0018    0.2115 H   0  0  0  0  0  0  0  0  0  0  0  0
    1.6883    4.2608    2.3534 H   0  0  0  0  0  0  0  0  0  0  0  0
    1.8339    2.7446    3.2483 H   0  0  0  0  0  0  0  0  0  0  0  0
   -0.1588    1.8315    2.0377 H   0  0  0  0  0  0  0  0  0  0  0  0
   -0.2956    3.3306    1.1166 H   0  0  0  0  0  0  0  0  0  0  0  0
   -0.6337    4.6083    3.2419 H   0  0  0  0  0  0  0  0  0  0  0  0
   -0.5020    3.1090    4.1635 H   0  0  0  0  0  0  0  0  0  0  0  0
   -2.5002    2.1923    2.9499 H   0  0  0  0  0  0  0  0  0  0  0  0
   -2.6328    3.6983    2.0368 H   0  0  0  0  0  0  0  0  0  0  0  0
   -2.9130    4.9697    4.1765 H   0  0  0  0  0  0  0  0  0  0  0  0
   -2.7796    3.4653    5.0884 H   0  0  0  0  0  0  0  0  0  0  0  0
   -4.8213    2.5838    3.9329 H   0  0  0  0  0  0  0  0  0  0  0  0
   -4.9555    4.0918    3.0226 H   0  0  0  0  0  0  0  0  0  0  0  0
   -5.1437    5.3686    5.1739 H   0  0  0  0  0  0  0  0  0  0  0  0
   -5.0160    3.8597    6.0794 H   0  0  0  0  0  0  0  0  0  0  0  0
   -7.0978    3.0182    4.9718 H   0  0  0  0  0  0  0  0  0  0  0  0
   -7.2249    4.5287    4.0654 H   0  0  0  0  0  0  0  0  0  0  0  0
   -7.3690    5.8078    6.2154 H   0  0  0  0  0  0  0  0  0  0  0  0
   -7.2403    4.2998    7.1230 H   0  0  0  0  0  0  0  0  0  0  0  0
   -9.3337    3.4638    6.0324 H   0  0  0  0  0  0  0  0  0  0  0  0
   -9.4621    4.9717    5.1228 H   0  0  0  0  0  0  0  0  0  0  0  0
   -9.6049    6.2548    7.2701 H   0  0  0  0  0  0  0  0  0  0  0  0
   -9.4766    4.7475    8.1797 H   0  0  0  0  0  0  0  0  0  0  0  0
  -11.5693    3.9103    7.0811 H   0  0  0  0  0  0  0  0  0  0  0  0
  -11.6983    5.4204    6.1779 H   0  0  0  0  0  0  0  0  0  0  0  0
  -11.8441    6.6929    8.3276 H   0  0  0  0  0  0  0  0  0  0  0  0
  -11.7177    5.1857    9.2389 H   0  0  0  0  0  0  0  0  0  0  0  0
  -13.8194    4.3569    8.1451 H   0  0  0  0  0  0  0  0  0  0  0  0
  -13.9447    5.8677    7.2394 H   0  0  0  0  0  0  0  0  0  0  0  0
  -13.9963    5.6272   10.2949 H   0  0  0  0  0  0  0  0  0  0  0  0
  -15.3951    5.9144    9.2413 H   0  0  0  0  0  0  0  0  0  0  0  0
  -14.1248    7.1450    9.3822 H   0  0  0  0  0  0  0  0  0  0  0  0
    6.7650    2.4985   -0.4701 H   0  0  0  0  0  0  0  0  0  0  0  0
    6.5378    1.1209    0.5395 H   0  0  0  0  0  0  0  0  0  0  0  0
  1  2  1  0  0  0  0
  1 34  1  0  0  0  0
  1 35  1  0  0  0  0
  1 36  1  0  0  0  0
  2  3  1  0  0  0  0
  2 37  1  0  0  0  0
  2 38  1  0  0  0  0
  3  4  1  0  0  0  0
  3 39  1  0  0  0  0
  3 40  1  0  0  0  0
  4  5  1  0  0  0  0
  4 33  1  0  0  0  0
  4 41  1  0  0  0  0
  5  6  1  0  0  0  0
  5 42  1  0  0  0  0
  5 43  1  0  0  0  0
  6  7  1  0  0  0  0
  6 44  1  0  0  0  0
  6 45  1  0  0  0  0
  7  8  1  0  0  0  0
  7 46  1  0  0  0  0
  7 47  1  0  0  0  0
  8  9  1  0  0  0  0
  8 48  1  0  0  0  0
  8 49  1  0  0  0  0
  9 10  1  0  0  0  0
  9 50  1  0  0  0  0
  9 51  1  0  0  0  0
 10 11  1  0  0  0  0
 10 52  1  0  0  0  0
 10 53  1  0  0  0  0
 11 12  1  0  0  0  0
 11 54  1  0  0  0  0
 11 55  1  0  0  0  0
 12 13  1  0  0  0  0
 12 56  1  0  0  0  0
 12 57  1  0  0  0  0
 13 14  1  0  0  0  0
 13 58  1  0  0  0  0
 13 59  1  0  0  0  0
 14 15  1  0  0  0  0
 14 60  1  0  0  0  0
 14 61  1  0  0  0  0
 15 16  1  0  0  0  0
 15 33  1  0  0  0  0
 15 62  1  0  0  0  0
 16 17  1  0  0  0  0
 16 63  1  0  0  0  0
 16 64  1  0  0  0  0
 17 18  1  0  0  0  0
 17 65  1  0  0  0  0
 17 66  1  0  0  0  0
 18 19  1  0  0  0  0
 18 67  1  0  0  0  0
 18 68  1  0  0  0  0
 19 20  1  0  0  0  0
 19 69  1  0  0  0  0
 19 70  1  0  0  0  0
 20 21  1  0  0  0  0
 20 71  1  0  0  0  0
 20 72  1  0  0  0  0
 21 22  1  0  0  0  0
 21 73  1  0  0  0  0
 21 74  1  0  0  0  0
 22 23  1  0  0  0  0
 22 75  1  0  0  0  0
 22 76  1  0  0  0  0
 23 24  1  0  0  0  0
 23 77  1  0  0  0  0
 23 78  1  0  0  0  0
 24 25  1  0  0  0  0
 24 79  1  0  0  0  0
 24 80  1  0  0  0  0
 25 26  1  0  0  0  0
 25 81  1  0  0  0  0
 25 82  1  0  0  0  0
 26 27  1  0  0  0  0
 26 83  1  0  0  0  0
 26 84  1  0  0  0  0
 27 28  1  0  0  0  0
 27 85  1  0  0  0  0
 27 86  1  0  0  0  0
 28 29  1  0  0  0  0
 28 87  1  0  0  0  0
 28 88  1  0  0  0  0
 29 30  1  0  0  0  0
 29 89  1  0  0  0  0
 29 90  1  0  0  0  0
 30 31  1  0  0  0  0
 30 91  1  0  0  0  0
 30 92  1  0  0  0  0
 31 32  1  0  0  0  0
 31 93  1  0  0  0  0
 31 94  1  0  0  0  0
 32 95  1  0  0  0  0
 32 96  1  0  0  0  0
 32 97  1  0  0  0  0
 33 98  1  0  0  0  0
 33 99  1  0  0  0  0
M  END
$$$$
