
 OpenBabel04232216503D

 70 71  0  0  1  0  0  0  0  0999 V2000
    7.0412   -0.8581   -2.5210 C   0  0  0  0  0  0  0  0  0  0  0  0
    7.6859    0.6808   -3.2491 C   0  0  3  0  0  0  0  0  0  0  0  0
    5.9077    1.0617   -2.7640 C   0  0  0  0  0  0  0  0  0  0  0  0
    5.7074    2.1793   -1.7089 C   0  0  0  0  0  0  0  0  0  0  0  0
    5.1927    3.2266   -2.6662 C   0  0  0  0  0  0  0  0  0  0  0  0
    6.2249    3.1082   -3.7360 C   0  0  0  0  0  0  0  0  0  0  0  0
    6.7700    4.3697   -4.0565 C   0  0  0  0  0  0  0  0  0  0  0  0
    8.0822    4.2256   -3.3354 C   0  0  0  0  0  0  0  0  0  0  0  0
    8.8343    5.0797   -4.1407 C   0  0  0  0  0  0  0  0  0  0  0  0
   10.1930    5.0050   -3.6026 C   0  0  0  0  0  0  0  0  0  0  0  0
   10.6100    5.7221   -4.7720 C   0  0  0  0  0  0  0  0  0  0  0  0
   11.7210    6.4740   -4.5094 N   0  0  0  0  0  0  0  0  0  0  0  0
   11.8992    6.9555   -5.7607 C   0  0  0  0  0  0  0  0  0  0  0  0
   10.9971    7.2907   -6.5357 O   0  0  0  0  0  0  0  0  0  0  0  0
   13.2334    6.7572   -6.1877 C   0  0  0  0  0  0  0  0  0  0  0  0
   13.6991    5.4754   -5.7841 C   0  0  0  0  0  0  0  0  0  0  0  0
   12.9147    4.0068   -5.2996 C   0  0  0  0  0  0  0  0  0  0  0  0
   11.9362    3.2474   -5.9908 C   0  0  0  0  0  0  0  0  0  0  0  0
   12.3708    3.9195   -7.6298 N   0  0  0  0  0  0  0  0  0  0  0  0
   13.8035    4.8904   -8.3838 C   0  0  0  0  0  0  0  0  0  0  0  0
   14.4190    6.3558   -9.4987 C   0  0  0  0  0  0  0  0  0  0  0  0
   14.0926    7.8512  -10.3003 C   0  0  0  0  0  0  0  0  0  0  0  0
   13.1158    9.0177  -10.8678 C   0  0  0  0  0  0  0  0  0  0  0  0
   11.7795    8.9803  -10.1473 C   0  0  0  0  0  0  0  0  0  0  0  0
   11.8341    8.4006   -8.5405 C   0  0  0  0  0  0  0  0  0  0  0  0
   13.0960    7.6151   -7.5905 C   0  0  0  0  0  0  0  0  0  0  0  0
   10.2977    2.4485   -5.2075 C   0  0  0  0  0  0  0  0  0  0  0  0
    9.3515    1.3948   -4.1380 C   0  0  0  0  0  0  0  0  0  0  0  0
    6.3143   -0.6319   -1.6770 H   0  0  0  0  0  0  0  0  0  0  0  0
    7.5903   -1.3376   -1.7139 H   0  0  0  0  0  0  0  0  0  0  0  0
    6.2590   -1.3770   -3.1377 H   0  0  0  0  0  0  0  0  0  0  0  0
    8.1515    0.9602   -2.3319 H   0  0  0  0  0  0  0  0  0  0  0  0
    5.1656    0.3568   -2.2788 H   0  0  0  0  0  0  0  0  0  0  0  0
    5.2989    1.0519   -3.6912 H   0  0  0  0  0  0  0  0  0  0  0  0
    6.6788    2.3212   -1.1707 H   0  0  0  0  0  0  0  0  0  0  0  0
    4.9698    2.0570   -0.9070 H   0  0  0  0  0  0  0  0  0  0  0  0
    5.1039    4.2032   -2.2118 H   0  0  0  0  0  0  0  0  0  0  0  0
    4.2577    2.9245   -3.1226 H   0  0  0  0  0  0  0  0  0  0  0  0
    6.1557    2.4434   -4.6088 H   0  0  0  0  0  0  0  0  0  0  0  0
    7.0309    2.6322   -3.2056 H   0  0  0  0  0  0  0  0  0  0  0  0
    6.2157    5.2613   -3.7108 H   0  0  0  0  0  0  0  0  0  0  0  0
    6.8053    4.3995   -5.1515 H   0  0  0  0  0  0  0  0  0  0  0  0
    8.5794    3.2838   -3.5106 H   0  0  0  0  0  0  0  0  0  0  0  0
    8.1183    4.3753   -2.2463 H   0  0  0  0  0  0  0  0  0  0  0  0
    8.3930    6.0887   -4.1047 H   0  0  0  0  0  0  0  0  0  0  0  0
    8.7595    4.6928   -5.1897 H   0  0  0  0  0  0  0  0  0  0  0  0
   10.6394    3.9889   -3.5036 H   0  0  0  0  0  0  0  0  0  0  0  0
   10.3467    5.4897   -2.6563 H   0  0  0  0  0  0  0  0  0  0  0  0
    9.8804    6.4957   -5.0640 H   0  0  0  0  0  0  0  0  0  0  0  0
   10.6421    5.0933   -5.6790 H   0  0  0  0  0  0  0  0  0  0  0  0
   12.4602    5.9565   -4.0490 H   0  0  0  0  0  0  0  0  0  0  0  0
   14.5130    5.5612   -5.0365 H   0  0  0  0  0  0  0  0  0  0  0  0
   13.8397    3.3860   -5.3503 H   0  0  0  0  0  0  0  0  0  0  0  0
   12.9319    3.0628   -7.7536 H   0  0  0  0  0  0  0  0  0  0  0  0
   14.6239    4.8880   -7.6506 H   0  0  0  0  0  0  0  0  0  0  0  0
   14.1510    4.1267   -9.0934 H   0  0  0  0  0  0  0  0  0  0  0  0
   15.0738    5.9051  -10.1981 H   0  0  0  0  0  0  0  0  0  0  0  0
   15.1627    6.7880   -8.7687 H   0  0  0  0  0  0  0  0  0  0  0  0
   14.2352    8.5325   -9.4622 H   0  0  0  0  0  0  0  0  0  0  0  0
   13.2846    7.2530  -10.7470 H   0  0  0  0  0  0  0  0  0  0  0  0
   13.0048    8.9344  -11.9685 H   0  0  0  0  0  0  0  0  0  0  0  0
   13.5299   10.0449  -10.7895 H   0  0  0  0  0  0  0  0  0  0  0  0
   11.2564    9.9579  -10.2042 H   0  0  0  0  0  0  0  0  0  0  0  0
   11.1080    8.3579  -10.7782 H   0  0  0  0  0  0  0  0  0  0  0  0
   12.0897    9.4150   -8.2766 H   0  0  0  0  0  0  0  0  0  0  0  0
   11.5536    7.4881   -9.0696 H   0  0  0  0  0  0  0  0  0  0  0  0
   13.9949    8.2219   -7.6590 H   0  0  0  0  0  0  0  0  0  0  0  0
   12.9767    6.7411   -8.1722 H   0  0  0  0  0  0  0  0  0  0  0  0
   11.2815    1.9127   -4.6568 H   0  0  0  0  0  0  0  0  0  0  0  0
   10.0205    1.0029   -3.3702 H   0  0  0  0  0  0  0  0  0  0  0  0
  1  2  1  0  0  0  0
  1 29  1  0  0  0  0
  1 30  1  0  0  0  0
  1 31  1  0  0  0  0
  2  3  1  0  0  0  0
  2 28  1  0  0  0  0
  2 32  1  0  0  0  0
  3  4  1  0  0  0  0
  3 33  1  0  0  0  0
  3 34  1  0  0  0  0
  4  5  1  0  0  0  0
  4 35  1  0  0  0  0
  4 36  1  0  0  0  0
  5  6  1  0  0  0  0
  5 37  1  0  0  0  0
  5 38  1  0  0  0  0
  6  7  1  0  0  0  0
  6 39  1  0  0  0  0
  6 40  1  0  0  0  0
  7  8  1  0  0  0  0
  7 41  1  0  0  0  0
  7 42  1  0  0  0  0
  8  9  1  0  0  0  0
  8 43  1  0  0  0  0
  8 44  1  0  0  0  0
  9 10  1  0  0  0  0
  9 45  1  0  0  0  0
  9 46  1  0  0  0  0
 10 11  1  0  0  0  0
 10 47  1  0  0  0  0
 10 48  1  0  0  0  0
 11 12  1  0  0  0  0
 11 49  1  0  0  0  0
 11 50  1  0  0  0  0
 12 13  1  0  0  0  0
 12 51  1  0  0  0  0
 13 14  2  0  0  0  0
 13 15  1  0  0  0  0
 15 16  2  3  0  0  0
 15 26  1  0  0  0  0
 16 17  1  0  0  0  0
 16 52  1  0  0  0  0
 17 18  2  3  0  0  0
 17 53  1  0  0  0  0
 18 19  1  0  0  0  0
 18 27  1  0  0  0  0
 19 20  1  0  0  0  0
 19 54  1  0  0  0  0
 20 21  1  0  0  0  0
 20 55  1  0  0  0  0
 20 56  1  0  0  0  0
 21 22  1  0  0  0  0
 21 57  1  0  0  0  0
 21 58  1  0  0  0  0
 22 23  1  0  0  0  0
 22 59  1  0  0  0  0
 22 60  1  0  0  0  0
 23 24  1  0  0  0  0
 23 61  1  0  0  0  0
 23 62  1  0  0  0  0
 24 25  1  0  0  0  0
 24 63  1  0  0  0  0
 24 64  1  0  0  0  0
 25 26  1  0  0  0  0
 25 65  1  0  0  0  0
 25 66  1  0  0  0  0
 26 67  1  0  0  0  0
 26 68  1  0  0  0  0
 27 28  2  3  0  0  0
 27 69  1  0  0  0  0
 28 70  1  0  0  0  0
M  END
$$$$
