
 OpenBabel04232216593D

226225  0  0  0  0  0  0  0  0999 V2000
    2.6376    0.9977    0.4815 O   0  0  0  0  0  0  0  0  0  0  0  0
    2.1335   -0.0365    0.0578 C   0  0  0  0  0  0  0  0  0  0  0  0
    2.9097   -1.2342   -0.4274 C   0  0  0  0  0  0  0  0  0  0  0  0
    4.4086   -1.0021   -0.3291 C   0  0  0  0  0  0  0  0  0  0  0  0
    5.1837   -2.2150   -0.8202 C   0  0  0  0  0  0  0  0  0  0  0  0
    6.6810   -1.9646   -0.7127 C   0  0  0  0  0  0  0  0  0  0  0  0
    7.4503   -3.1782   -1.2061 C   0  0  0  0  0  0  0  0  0  0  0  0
    8.9445   -2.9298   -1.1014 C   0  0  0  0  0  0  0  0  0  0  0  0
    9.7090   -4.1452   -1.5945 C   0  0  0  0  0  0  0  0  0  0  0  0
   11.2027   -3.8959   -1.4891 C   0  0  0  0  0  0  0  0  0  0  0  0
   11.9672   -5.1105   -1.9812 C   0  0  0  0  0  0  0  0  0  0  0  0
   13.4601   -4.8602   -1.8776 C   0  0  0  0  0  0  0  0  0  0  0  0
   14.2226   -6.0750   -2.3720 C   0  0  0  0  0  0  0  0  0  0  0  0
   15.7149   -5.8227   -2.2694 C   0  0  0  0  0  0  0  0  0  0  0  0
   16.4777   -7.0369   -2.7637 C   0  0  0  0  0  0  0  0  0  0  0  0
   17.9697   -6.7852   -2.6595 C   0  0  0  0  0  0  0  0  0  0  0  0
   18.7323   -7.9988   -3.1554 C   0  0  0  0  0  0  0  0  0  0  0  0
   20.2243   -7.7464   -3.0528 C   0  0  0  0  0  0  0  0  0  0  0  0
   20.9868   -8.9606   -3.5472 C   0  0  0  0  0  0  0  0  0  0  0  0
   22.4788   -8.7090   -3.4427 C   0  0  0  0  0  0  0  0  0  0  0  0
   23.2411   -9.9226   -3.9390 C   0  0  0  0  0  0  0  0  0  0  0  0
   24.7331   -9.6725   -3.8315 C   0  0  0  0  0  0  0  0  0  0  0  0
   25.4955  -10.8865   -4.3268 C   0  0  0  0  0  0  0  0  0  0  0  0
   26.9874  -10.6348   -4.2221 C   0  0  0  0  0  0  0  0  0  0  0  0
   27.7500  -11.8491   -4.7164 C   0  0  0  0  0  0  0  0  0  0  0  0
   29.2419  -11.5965   -4.6140 C   0  0  0  0  0  0  0  0  0  0  0  0
   30.0044  -12.8108   -5.1082 C   0  0  0  0  0  0  0  0  0  0  0  0
   31.4964  -12.5583   -5.0058 C   0  0  0  0  0  0  0  0  0  0  0  0
   32.2588  -13.7727   -5.4999 C   0  0  0  0  0  0  0  0  0  0  0  0
   33.7507  -13.5202   -5.3975 C   0  0  0  0  0  0  0  0  0  0  0  0
   34.5132  -14.7346   -5.8916 C   0  0  0  0  0  0  0  0  0  0  0  0
   36.0051  -14.4822   -5.7892 C   0  0  0  0  0  0  0  0  0  0  0  0
   36.7676  -15.6958   -6.2851 C   0  0  0  0  0  0  0  0  0  0  0  0
   38.2595  -15.4433   -6.1828 C   0  0  0  0  0  0  0  0  0  0  0  0
   39.0220  -16.6570   -6.6786 C   0  0  0  0  0  0  0  0  0  0  0  0
   40.5140  -16.4044   -6.5764 C   0  0  0  0  0  0  0  0  0  0  0  0
   41.2764  -17.6188   -7.0704 C   0  0  0  0  0  0  0  0  0  0  0  0
   42.7684  -17.3656   -6.9698 C   0  0  0  0  0  0  0  0  0  0  0  0
   43.5308  -18.5808   -7.4621 C   0  0  0  0  0  0  0  0  0  0  0  0
   45.0228  -18.3283   -7.3597 C   0  0  0  0  0  0  0  0  0  0  0  0
   45.7852  -19.5427   -7.8537 C   0  0  0  0  0  0  0  0  0  0  0  0
   47.2772  -19.2910   -7.7495 C   0  0  0  0  0  0  0  0  0  0  0  0
   48.0396  -20.5054   -8.2436 C   0  0  0  0  0  0  0  0  0  0  0  0
   49.5316  -20.2536   -8.1393 C   0  0  0  0  0  0  0  0  0  0  0  0
   50.2940  -21.4680   -8.6334 C   0  0  0  0  0  0  0  0  0  0  0  0
   51.7860  -21.2163   -8.5291 C   0  0  0  0  0  0  0  0  0  0  0  0
   52.5484  -22.4307   -9.0231 C   0  0  0  0  0  0  0  0  0  0  0  0
   54.0404  -22.1797   -8.9171 C   0  0  0  0  0  0  0  0  0  0  0  0
   54.8028  -23.3948   -9.4094 C   0  0  0  0  0  0  0  0  0  0  0  0
   56.2947  -23.1431   -9.3050 C   0  0  0  0  0  0  0  0  0  0  0  0
   57.0571  -24.3584   -9.7971 C   0  0  0  0  0  0  0  0  0  0  0  0
   58.5491  -24.1074   -9.6911 C   0  0  0  0  0  0  0  0  0  0  0  0
   59.3116  -25.3217  -10.1852 C   0  0  0  0  0  0  0  0  0  0  0  0
   60.8035  -25.0715  -10.0771 C   0  0  0  0  0  0  0  0  0  0  0  0
   61.5661  -26.2851  -10.5730 C   0  0  0  0  0  0  0  0  0  0  0  0
   63.0579  -26.0356  -10.4631 C   0  0  0  0  0  0  0  0  0  0  0  0
   63.8190  -27.2519  -10.9548 C   0  0  0  0  0  0  0  0  0  0  0  0
   65.3125  -26.9999  -10.8468 C   0  0  0  0  0  0  0  0  0  0  0  0
   66.0752  -28.2113  -11.3436 C   0  0  0  0  0  0  0  0  0  0  0  0
   67.5665  -27.9649  -11.2336 C   0  0  0  0  0  0  0  0  0  0  0  0
   68.3287  -29.1786  -11.7296 C   0  0  0  0  0  0  0  0  0  0  0  0
   69.8204  -28.9289  -11.6194 C   0  0  0  0  0  0  0  0  0  0  0  0
   70.5825  -30.1424  -12.1155 C   0  0  0  0  0  0  0  0  0  0  0  0
   72.0739  -29.8925  -12.0053 C   0  0  0  0  0  0  0  0  0  0  0  0
   72.8351  -31.1060  -12.5013 C   0  0  0  0  0  0  0  0  0  0  0  0
   74.3260  -30.8557  -12.3910 C   0  0  0  0  0  0  0  0  0  0  0  0
   75.0858  -32.0694  -12.8870 C   0  0  0  0  0  0  0  0  0  0  0  0
   76.5756  -31.8181  -12.7763 C   0  0  0  0  0  0  0  0  0  0  0  0
   77.3344  -33.0321  -13.2704 C   0  0  0  0  0  0  0  0  0  0  0  0
   78.8226  -32.7771  -13.1581 C   0  0  0  0  0  0  0  0  0  0  0  0
   79.5831  -33.9893  -13.6514 C   0  0  0  0  0  0  0  0  0  0  0  0
   81.0705  -33.7302  -13.5375 C   0  0  0  0  0  0  0  0  0  0  0  0
   81.8300  -34.9396  -14.0315 C   0  0  0  0  0  0  0  0  0  0  0  0
   83.3162  -34.6950  -13.9304 C   0  0  0  0  0  0  0  0  0  0  0  0
   83.9426  -35.8523  -14.4407 O   0  0  0  0  0  0  0  0  0  0  0  0
   85.3582  -35.6069  -14.3009 O   0  0  0  0  0  0  0  0  0  0  0  0
   86.0859  -36.7581  -14.7700 O   0  0  0  0  0  0  0  0  0  0  0  0
   85.7741  -37.9104  -13.9469 O   0  0  0  0  0  0  0  0  0  0  0  0
   86.4937  -39.0670  -14.4234 O   0  0  0  0  0  0  0  0  0  0  0  0
   87.9172  -38.8622  -14.2560 O   0  0  0  0  0  0  0  0  0  0  0  0
    1.0375   -0.1453    0.0094 H   0  0  0  0  0  0  0  0  0  0  0  0
    2.6180   -1.4284   -1.4651 H   0  0  0  0  0  0  0  0  0  0  0  0
    2.6136   -2.0971    0.1789 H   0  0  0  0  0  0  0  0  0  0  0  0
    4.6836   -0.7847    0.7105 H   0  0  0  0  0  0  0  0  0  0  0  0
    4.6884   -0.1209   -0.9202 H   0  0  0  0  0  0  0  0  0  0  0  0
    4.9184   -2.4317   -1.8622 H   0  0  0  0  0  0  0  0  0  0  0  0
    4.9138   -3.0976   -0.2275 H   0  0  0  0  0  0  0  0  0  0  0  0
    6.9533   -1.7503    0.3285 H   0  0  0  0  0  0  0  0  0  0  0  0
    6.9586   -1.0851   -1.3068 H   0  0  0  0  0  0  0  0  0  0  0  0
    7.1830   -3.3913   -2.2482 H   0  0  0  0  0  0  0  0  0  0  0  0
    7.1782   -4.0605   -0.6138 H   0  0  0  0  0  0  0  0  0  0  0  0
    9.2167   -2.7160   -0.0609 H   0  0  0  0  0  0  0  0  0  0  0  0
    9.2220   -2.0501   -1.6948 H   0  0  0  0  0  0  0  0  0  0  0  0
    9.4398   -4.3587   -2.6362 H   0  0  0  0  0  0  0  0  0  0  0  0
    9.4354   -5.0267   -1.0015 H   0  0  0  0  0  0  0  0  0  0  0  0
   11.4736   -3.6819   -0.4479 H   0  0  0  0  0  0  0  0  0  0  0  0
   11.4775   -3.0162   -2.0841 H   0  0  0  0  0  0  0  0  0  0  0  0
   11.6954   -5.3256   -3.0218 H   0  0  0  0  0  0  0  0  0  0  0  0
   11.6929   -5.9907   -1.3868 H   0  0  0  0  0  0  0  0  0  0  0  0
   13.7320   -4.6463   -0.8366 H   0  0  0  0  0  0  0  0  0  0  0  0
   13.7338   -3.9797   -2.4720 H   0  0  0  0  0  0  0  0  0  0  0  0
   13.9505   -6.2897   -3.4130 H   0  0  0  0  0  0  0  0  0  0  0  0
   13.9506   -6.9559   -1.7770 H   0  0  0  0  0  0  0  0  0  0  0  0
   15.9874   -5.6078   -1.2287 H   0  0  0  0  0  0  0  0  0  0  0  0
   15.9873   -4.9422   -2.8645 H   0  0  0  0  0  0  0  0  0  0  0  0
   16.2062   -7.2508   -3.8048 H   0  0  0  0  0  0  0  0  0  0  0  0
   16.2046   -7.9176   -2.1695 H   0  0  0  0  0  0  0  0  0  0  0  0
   18.2414   -6.5725   -1.6182 H   0  0  0  0  0  0  0  0  0  0  0  0
   18.2428   -5.9037   -3.2527 H   0  0  0  0  0  0  0  0  0  0  0  0
   18.4598   -8.2123   -4.1964 H   0  0  0  0  0  0  0  0  0  0  0  0
   18.4601   -8.8800   -2.5614 H   0  0  0  0  0  0  0  0  0  0  0  0
   20.4967   -7.5317   -2.0121 H   0  0  0  0  0  0  0  0  0  0  0  0
   20.4965   -6.8659   -3.6479 H   0  0  0  0  0  0  0  0  0  0  0  0
   20.7154   -9.1745   -4.5883 H   0  0  0  0  0  0  0  0  0  0  0  0
   20.7136   -9.8414   -2.9530 H   0  0  0  0  0  0  0  0  0  0  0  0
   22.7502   -8.4966   -2.4012 H   0  0  0  0  0  0  0  0  0  0  0  0
   22.7521   -7.8273   -4.0355 H   0  0  0  0  0  0  0  0  0  0  0  0
   22.9712  -10.1331   -4.9813 H   0  0  0  0  0  0  0  0  0  0  0  0
   22.9659  -10.8048   -3.3479 H   0  0  0  0  0  0  0  0  0  0  0  0
   25.0030   -9.4609   -2.7895 H   0  0  0  0  0  0  0  0  0  0  0  0
   25.0080   -8.7909   -4.4236 H   0  0  0  0  0  0  0  0  0  0  0  0
   25.2242  -11.0995   -5.3682 H   0  0  0  0  0  0  0  0  0  0  0  0
   25.2221  -11.7678   -3.7334 H   0  0  0  0  0  0  0  0  0  0  0  0
   27.2588  -10.4211   -3.1809 H   0  0  0  0  0  0  0  0  0  0  0  0
   27.2608   -9.7541   -4.8162 H   0  0  0  0  0  0  0  0  0  0  0  0
   27.4775  -12.0640   -5.7570 H   0  0  0  0  0  0  0  0  0  0  0  0
   27.4779  -12.7294   -4.1211 H   0  0  0  0  0  0  0  0  0  0  0  0
   29.5145  -11.3816   -3.5733 H   0  0  0  0  0  0  0  0  0  0  0  0
   29.5141  -10.7161   -5.2092 H   0  0  0  0  0  0  0  0  0  0  0  0
   29.7319  -13.0257   -6.1489 H   0  0  0  0  0  0  0  0  0  0  0  0
   29.7322  -13.6912   -4.5130 H   0  0  0  0  0  0  0  0  0  0  0  0
   31.7689  -12.3434   -3.9652 H   0  0  0  0  0  0  0  0  0  0  0  0
   31.7685  -11.6780   -5.6011 H   0  0  0  0  0  0  0  0  0  0  0  0
   31.9863  -13.9877   -6.5405 H   0  0  0  0  0  0  0  0  0  0  0  0
   31.9866  -14.6530   -4.9046 H   0  0  0  0  0  0  0  0  0  0  0  0
   34.0233  -13.3053   -4.3568 H   0  0  0  0  0  0  0  0  0  0  0  0
   34.0229  -12.6399   -5.9928 H   0  0  0  0  0  0  0  0  0  0  0  0
   34.2406  -14.9495   -6.9322 H   0  0  0  0  0  0  0  0  0  0  0  0
   34.2410  -15.6150   -5.2964 H   0  0  0  0  0  0  0  0  0  0  0  0
   36.2779  -14.2685   -4.7484 H   0  0  0  0  0  0  0  0  0  0  0  0
   36.2774  -13.6012   -6.3835 H   0  0  0  0  0  0  0  0  0  0  0  0
   36.4949  -15.9094   -7.3260 H   0  0  0  0  0  0  0  0  0  0  0  0
   36.4956  -16.5770   -5.6909 H   0  0  0  0  0  0  0  0  0  0  0  0
   38.5323  -15.2297   -5.1419 H   0  0  0  0  0  0  0  0  0  0  0  0
   38.5315  -14.5621   -6.7769 H   0  0  0  0  0  0  0  0  0  0  0  0
   38.7492  -16.8706   -7.7195 H   0  0  0  0  0  0  0  0  0  0  0  0
   38.7500  -17.5381   -6.0844 H   0  0  0  0  0  0  0  0  0  0  0  0
   40.7866  -16.1895   -5.5357 H   0  0  0  0  0  0  0  0  0  0  0  0
   40.7860  -15.5241   -7.1717 H   0  0  0  0  0  0  0  0  0  0  0  0
   41.0029  -17.8347   -8.1106 H   0  0  0  0  0  0  0  0  0  0  0  0
   41.0052  -18.4988   -6.4742 H   0  0  0  0  0  0  0  0  0  0  0  0
   43.0417  -17.1485   -5.9298 H   0  0  0  0  0  0  0  0  0  0  0  0
   43.0397  -16.4864   -7.5671 H   0  0  0  0  0  0  0  0  0  0  0  0
   43.2584  -18.7971   -8.5025 H   0  0  0  0  0  0  0  0  0  0  0  0
   43.2585  -19.4603   -6.8657 H   0  0  0  0  0  0  0  0  0  0  0  0
   45.2952  -18.1132   -6.3191 H   0  0  0  0  0  0  0  0  0  0  0  0
   45.2951  -17.4480   -7.9551 H   0  0  0  0  0  0  0  0  0  0  0  0
   45.5137  -19.7569   -8.8948 H   0  0  0  0  0  0  0  0  0  0  0  0
   45.5120  -20.4233   -7.2593 H   0  0  0  0  0  0  0  0  0  0  0  0
   47.5487  -19.0768   -6.7084 H   0  0  0  0  0  0  0  0  0  0  0  0
   47.5504  -18.4103   -8.3439 H   0  0  0  0  0  0  0  0  0  0  0  0
   47.7682  -20.7195   -9.2846 H   0  0  0  0  0  0  0  0  0  0  0  0
   47.7664  -21.3860   -7.6491 H   0  0  0  0  0  0  0  0  0  0  0  0
   49.8030  -20.0395   -7.0982 H   0  0  0  0  0  0  0  0  0  0  0  0
   49.8048  -19.3730   -8.7337 H   0  0  0  0  0  0  0  0  0  0  0  0
   50.0226  -21.6822   -9.6745 H   0  0  0  0  0  0  0  0  0  0  0  0
   50.0207  -22.3486   -8.0390 H   0  0  0  0  0  0  0  0  0  0  0  0
   52.0573  -21.0022   -7.4880 H   0  0  0  0  0  0  0  0  0  0  0  0
   52.0593  -20.3357   -9.1235 H   0  0  0  0  0  0  0  0  0  0  0  0
   52.2780  -22.6441  -10.0646 H   0  0  0  0  0  0  0  0  0  0  0  0
   52.2741  -23.3116   -8.4296 H   0  0  0  0  0  0  0  0  0  0  0  0
   54.3106  -21.9651   -7.8758 H   0  0  0  0  0  0  0  0  0  0  0  0
   54.3148  -21.2996   -9.5117 H   0  0  0  0  0  0  0  0  0  0  0  0
   54.5316  -23.6104  -10.4502 H   0  0  0  0  0  0  0  0  0  0  0  0
   54.5292  -24.2746   -8.8138 H   0  0  0  0  0  0  0  0  0  0  0  0
   56.5659  -22.9275   -8.2642 H   0  0  0  0  0  0  0  0  0  0  0  0
   56.5683  -22.2635   -9.9007 H   0  0  0  0  0  0  0  0  0  0  0  0
   56.7868  -24.5731  -10.8384 H   0  0  0  0  0  0  0  0  0  0  0  0
   56.7826  -25.2384   -9.2024 H   0  0  0  0  0  0  0  0  0  0  0  0
   58.8193  -23.8942   -8.6495 H   0  0  0  0  0  0  0  0  0  0  0  0
   58.8234  -23.2265  -10.2844 H   0  0  0  0  0  0  0  0  0  0  0  0
   59.0422  -25.5339  -11.2273 H   0  0  0  0  0  0  0  0  0  0  0  0
   59.0362  -26.2030   -9.5928 H   0  0  0  0  0  0  0  0  0  0  0  0
   61.0728  -24.8606   -9.0348 H   0  0  0  0  0  0  0  0  0  0  0  0
   61.0788  -24.1894  -10.6683 H   0  0  0  0  0  0  0  0  0  0  0  0
   61.2977  -26.4951  -11.6157 H   0  0  0  0  0  0  0  0  0  0  0  0
   61.2898  -27.1674   -9.9826 H   0  0  0  0  0  0  0  0  0  0  0  0
   63.3263  -25.8243   -9.4205 H   0  0  0  0  0  0  0  0  0  0  0  0
   63.3345  -25.1540  -11.0544 H   0  0  0  0  0  0  0  0  0  0  0  0
   63.5522  -27.4613  -12.0000 H   0  0  0  0  0  0  0  0  0  0  0  0
   63.5440  -28.1316  -10.3659 H   0  0  0  0  0  0  0  0  0  0  0  0
   65.5805  -26.7906   -9.8046 H   0  0  0  0  0  0  0  0  0  0  0  0
   65.5887  -26.1180  -11.4379 H   0  0  0  0  0  0  0  0  0  0  0  0
   65.8055  -28.4248  -12.3817 H   0  0  0  0  0  0  0  0  0  0  0  0
   65.8019  -29.0922  -10.7467 H   0  0  0  0  0  0  0  0  0  0  0  0
   67.8347  -27.7550  -10.1908 H   0  0  0  0  0  0  0  0  0  0  0  0
   67.8428  -27.0826  -11.8236 H   0  0  0  0  0  0  0  0  0  0  0  0
   68.0605  -29.3884  -12.7724 H   0  0  0  0  0  0  0  0  0  0  0  0
   68.0525  -30.0611  -11.1395 H   0  0  0  0  0  0  0  0  0  0  0  0
   70.0889  -28.7191  -10.5767 H   0  0  0  0  0  0  0  0  0  0  0  0
   70.0969  -28.0466  -12.2097 H   0  0  0  0  0  0  0  0  0  0  0  0
   70.3144  -30.3524  -13.1583 H   0  0  0  0  0  0  0  0  0  0  0  0
   70.3065  -31.0250  -11.5253 H   0  0  0  0  0  0  0  0  0  0  0  0
   72.3426  -29.6828  -10.9625 H   0  0  0  0  0  0  0  0  0  0  0  0
   72.3506  -29.0102  -12.5956 H   0  0  0  0  0  0  0  0  0  0  0  0
   72.5673  -31.3161  -13.5442 H   0  0  0  0  0  0  0  0  0  0  0  0
   72.5593  -31.9886  -11.9111 H   0  0  0  0  0  0  0  0  0  0  0  0
   74.5951  -30.6462  -11.3483 H   0  0  0  0  0  0  0  0  0  0  0  0
   74.6031  -29.9737  -12.9814 H   0  0  0  0  0  0  0  0  0  0  0  0
   74.8183  -32.2796  -13.9300 H   0  0  0  0  0  0  0  0  0  0  0  0
   74.8103  -32.9520  -12.2967 H   0  0  0  0  0  0  0  0  0  0  0  0
   76.8447  -31.6072  -11.7339 H   0  0  0  0  0  0  0  0  0  0  0  0
   76.8530  -30.9369  -13.3679 H   0  0  0  0  0  0  0  0  0  0  0  0
   77.0678  -33.2440  -14.3133 H   0  0  0  0  0  0  0  0  0  0  0  0
   77.0594  -33.9143  -12.6790 H   0  0  0  0  0  0  0  0  0  0  0  0
   79.0904  -32.5659  -12.1154 H   0  0  0  0  0  0  0  0  0  0  0  0
   79.0988  -31.8956  -13.7497 H   0  0  0  0  0  0  0  0  0  0  0  0
   79.3170  -34.2016  -14.6944 H   0  0  0  0  0  0  0  0  0  0  0  0
   79.3088  -34.8720  -13.0604 H   0  0  0  0  0  0  0  0  0  0  0  0
   81.3365  -33.5188  -12.4946 H   0  0  0  0  0  0  0  0  0  0  0  0
   81.3445  -32.8476  -14.1287 H   0  0  0  0  0  0  0  0  0  0  0  0
   81.5618  -35.1664  -15.0715 H   0  0  0  0  0  0  0  0  0  0  0  0
   81.5584  -35.8311  -13.4511 H   0  0  0  0  0  0  0  0  0  0  0  0
   83.6132  -34.5306  -12.8879 H   0  0  0  0  0  0  0  0  0  0  0  0
   83.6108  -33.8282  -14.5316 H   0  0  0  0  0  0  0  0  0  0  0  0
   88.1824  -39.6977  -14.6725 H   0  0  0  0  0  0  0  0  0  0  0  0
  1  2  2  0  0  0  0
  2  3  1  0  0  0  0
  2 81  1  0  0  0  0
  3  4  1  0  0  0  0
  3 82  1  0  0  0  0
  3 83  1  0  0  0  0
  4  5  1  0  0  0  0
  4 84  1  0  0  0  0
  4 85  1  0  0  0  0
  5  6  1  0  0  0  0
  5 86  1  0  0  0  0
  5 87  1  0  0  0  0
  6  7  1  0  0  0  0
  6 88  1  0  0  0  0
  6 89  1  0  0  0  0
  7  8  1  0  0  0  0
  7 90  1  0  0  0  0
  7 91  1  0  0  0  0
  8  9  1  0  0  0  0
  8 92  1  0  0  0  0
  8 93  1  0  0  0  0
  9 10  1  0  0  0  0
  9 94  1  0  0  0  0
  9 95  1  0  0  0  0
 10 11  1  0  0  0  0
 10 96  1  0  0  0  0
 10 97  1  0  0  0  0
 11 12  1  0  0  0  0
 11 98  1  0  0  0  0
 11 99  1  0  0  0  0
 12 13  1  0  0  0  0
 12100  1  0  0  0  0
 12101  1  0  0  0  0
 13 14  1  0  0  0  0
 13102  1  0  0  0  0
 13103  1  0  0  0  0
 14 15  1  0  0  0  0
 14104  1  0  0  0  0
 14105  1  0  0  0  0
 15 16  1  0  0  0  0
 15106  1  0  0  0  0
 15107  1  0  0  0  0
 16 17  1  0  0  0  0
 16108  1  0  0  0  0
 16109  1  0  0  0  0
 17 18  1  0  0  0  0
 17110  1  0  0  0  0
 17111  1  0  0  0  0
 18 19  1  0  0  0  0
 18112  1  0  0  0  0
 18113  1  0  0  0  0
 19 20  1  0  0  0  0
 19114  1  0  0  0  0
 19115  1  0  0  0  0
 20 21  1  0  0  0  0
 20116  1  0  0  0  0
 20117  1  0  0  0  0
 21 22  1  0  0  0  0
 21118  1  0  0  0  0
 21119  1  0  0  0  0
 22 23  1  0  0  0  0
 22120  1  0  0  0  0
 22121  1  0  0  0  0
 23 24  1  0  0  0  0
 23122  1  0  0  0  0
 23123  1  0  0  0  0
 24 25  1  0  0  0  0
 24124  1  0  0  0  0
 24125  1  0  0  0  0
 25 26  1  0  0  0  0
 25126  1  0  0  0  0
 25127  1  0  0  0  0
 26 27  1  0  0  0  0
 26128  1  0  0  0  0
 26129  1  0  0  0  0
 27 28  1  0  0  0  0
 27130  1  0  0  0  0
 27131  1  0  0  0  0
 28 29  1  0  0  0  0
 28132  1  0  0  0  0
 28133  1  0  0  0  0
 29 30  1  0  0  0  0
 29134  1  0  0  0  0
 29135  1  0  0  0  0
 30 31  1  0  0  0  0
 30136  1  0  0  0  0
 30137  1  0  0  0  0
 31 32  1  0  0  0  0
 31138  1  0  0  0  0
 31139  1  0  0  0  0
 32 33  1  0  0  0  0
 32140  1  0  0  0  0
 32141  1  0  0  0  0
 33 34  1  0  0  0  0
 33142  1  0  0  0  0
 33143  1  0  0  0  0
 34 35  1  0  0  0  0
 34144  1  0  0  0  0
 34145  1  0  0  0  0
 35 36  1  0  0  0  0
 35146  1  0  0  0  0
 35147  1  0  0  0  0
 36 37  1  0  0  0  0
 36148  1  0  0  0  0
 36149  1  0  0  0  0
 37 38  1  0  0  0  0
 37150  1  0  0  0  0
 37151  1  0  0  0  0
 38 39  1  0  0  0  0
 38152  1  0  0  0  0
 38153  1  0  0  0  0
 39 40  1  0  0  0  0
 39154  1  0  0  0  0
 39155  1  0  0  0  0
 40 41  1  0  0  0  0
 40156  1  0  0  0  0
 40157  1  0  0  0  0
 41 42  1  0  0  0  0
 41158  1  0  0  0  0
 41159  1  0  0  0  0
 42 43  1  0  0  0  0
 42160  1  0  0  0  0
 42161  1  0  0  0  0
 43 44  1  0  0  0  0
 43162  1  0  0  0  0
 43163  1  0  0  0  0
 44 45  1  0  0  0  0
 44164  1  0  0  0  0
 44165  1  0  0  0  0
 45 46  1  0  0  0  0
 45166  1  0  0  0  0
 45167  1  0  0  0  0
 46 47  1  0  0  0  0
 46168  1  0  0  0  0
 46169  1  0  0  0  0
 47 48  1  0  0  0  0
 47170  1  0  0  0  0
 47171  1  0  0  0  0
 48 49  1  0  0  0  0
 48172  1  0  0  0  0
 48173  1  0  0  0  0
 49 50  1  0  0  0  0
 49174  1  0  0  0  0
 49175  1  0  0  0  0
 50 51  1  0  0  0  0
 50176  1  0  0  0  0
 50177  1  0  0  0  0
 51 52  1  0  0  0  0
 51178  1  0  0  0  0
 51179  1  0  0  0  0
 52 53  1  0  0  0  0
 52180  1  0  0  0  0
 52181  1  0  0  0  0
 53 54  1  0  0  0  0
 53182  1  0  0  0  0
 53183  1  0  0  0  0
 54 55  1  0  0  0  0
 54184  1  0  0  0  0
 54185  1  0  0  0  0
 55 56  1  0  0  0  0
 55186  1  0  0  0  0
 55187  1  0  0  0  0
 56 57  1  0  0  0  0
 56188  1  0  0  0  0
 56189  1  0  0  0  0
 57 58  1  0  0  0  0
 57190  1  0  0  0  0
 57191  1  0  0  0  0
 58 59  1  0  0  0  0
 58192  1  0  0  0  0
 58193  1  0  0  0  0
 59 60  1  0  0  0  0
 59194  1  0  0  0  0
 59195  1  0  0  0  0
 60 61  1  0  0  0  0
 60196  1  0  0  0  0
 60197  1  0  0  0  0
 61 62  1  0  0  0  0
 61198  1  0  0  0  0
 61199  1  0  0  0  0
 62 63  1  0  0  0  0
 62200  1  0  0  0  0
 62201  1  0  0  0  0
 63 64  1  0  0  0  0
 63202  1  0  0  0  0
 63203  1  0  0  0  0
 64 65  1  0  0  0  0
 64204  1  0  0  0  0
 64205  1  0  0  0  0
 65 66  1  0  0  0  0
 65206  1  0  0  0  0
 65207  1  0  0  0  0
 66 67  1  0  0  0  0
 66208  1  0  0  0  0
 66209  1  0  0  0  0
 67 68  1  0  0  0  0
 67210  1  0  0  0  0
 67211  1  0  0  0  0
 68 69  1  0  0  0  0
 68212  1  0  0  0  0
 68213  1  0  0  0  0
 69 70  1  0  0  0  0
 69214  1  0  0  0  0
 69215  1  0  0  0  0
 70 71  1  0  0  0  0
 70216  1  0  0  0  0
 70217  1  0  0  0  0
 71 72  1  0  0  0  0
 71218  1  0  0  0  0
 71219  1  0  0  0  0
 72 73  1  0  0  0  0
 72220  1  0  0  0  0
 72221  1  0  0  0  0
 73 74  1  0  0  0  0
 73222  1  0  0  0  0
 73223  1  0  0  0  0
 74 75  1  0  0  0  0
 74224  1  0  0  0  0
 74225  1  0  0  0  0
 75 76  1  0  0  0  0
 76 77  1  0  0  0  0
 77 78  1  0  0  0  0
 78 79  1  0  0  0  0
 79 80  1  0  0  0  0
 80226  1  0  0  0  0
M  END
$$$$
