
 OpenBabel04232217013D

 96 95  0  0  0  0  0  0  0  0999 V2000
   11.4587    9.2376   11.5856 O   0  0  0  0  0  0  0  0  0  0  0  0
   10.9795    9.6890   10.3209 C   0  0  0  0  0  0  0  0  0  0  0  0
   11.4852    8.7884    9.2135 C   0  0  0  0  0  0  0  0  0  0  0  0
   13.0123    8.7914    9.1634 C   0  0  0  0  0  0  0  0  0  0  0  0
   13.5301    7.8796    8.0538 C   0  0  0  0  0  0  0  0  0  0  0  0
   13.0411    8.3884    6.7600 N   0  0  0  0  0  0  0  0  0  0  0  0
   13.5212    7.4906    5.7382 N   0  0  0  0  0  0  0  0  0  0  0  0
   13.0427    7.9452    4.4503 N   0  0  0  0  0  0  0  0  0  0  0  0
   13.5271    7.0921    3.3913 N   0  0  0  0  0  0  0  0  0  0  0  0
   13.0576    7.5222    2.0795 N   0  0  0  0  0  0  0  0  0  0  0  0
   13.7270    6.5149    0.9330 S   0  0  0  0  0  0  0  0  0  0  0  0
   12.9930    7.2635   -0.8345 S   0  0  0  0  0  0  0  0  0  0  0  0
   13.7050    9.1794   -1.1189 S   0  0  0  0  0  0  0  0  0  0  0  0
   15.7776    9.1704   -1.1901 S   0  0  0  0  0  0  0  0  0  0  0  0
   16.4494   11.1520   -1.4268 S   0  0  0  0  0  0  0  0  0  0  0  0
   18.5597   11.1405   -1.4256 S   0  0  0  0  0  0  0  0  0  0  0  0
   19.2508   13.1168   -1.6842 S   0  0  0  0  0  0  0  0  0  0  0  0
   21.3604   13.1038   -1.6824 S   0  0  0  0  0  0  0  0  0  0  0  0
   22.0511   15.0801   -1.9406 S   0  0  0  0  0  0  0  0  0  0  0  0
   24.1604   15.0670   -1.9389 S   0  0  0  0  0  0  0  0  0  0  0  0
   24.8511   17.0433   -2.1971 S   0  0  0  0  0  0  0  0  0  0  0  0
   26.9604   17.0302   -2.1953 S   0  0  0  0  0  0  0  0  0  0  0  0
   27.6511   19.0065   -2.4535 S   0  0  0  0  0  0  0  0  0  0  0  0
   29.7604   18.9934   -2.4518 S   0  0  0  0  0  0  0  0  0  0  0  0
   30.4511   20.9698   -2.7100 S   0  0  0  0  0  0  0  0  0  0  0  0
   32.5604   20.9566   -2.7083 S   0  0  0  0  0  0  0  0  0  0  0  0
   33.2511   22.9330   -2.9665 S   0  0  0  0  0  0  0  0  0  0  0  0
   35.3604   22.9199   -2.9648 S   0  0  0  0  0  0  0  0  0  0  0  0
   36.0511   24.8962   -3.2230 S   0  0  0  0  0  0  0  0  0  0  0  0
   38.1604   24.8831   -3.2212 S   0  0  0  0  0  0  0  0  0  0  0  0
   38.8510   26.8594   -3.4794 S   0  0  0  0  0  0  0  0  0  0  0  0
   40.9604   26.8463   -3.4777 S   0  0  0  0  0  0  0  0  0  0  0  0
   41.6510   28.8226   -3.7359 S   0  0  0  0  0  0  0  0  0  0  0  0
   43.7604   28.8095   -3.7342 S   0  0  0  0  0  0  0  0  0  0  0  0
   44.4510   30.7859   -3.9924 S   0  0  0  0  0  0  0  0  0  0  0  0
   46.5604   30.7727   -3.9907 S   0  0  0  0  0  0  0  0  0  0  0  0
   47.2510   32.7491   -4.2489 S   0  0  0  0  0  0  0  0  0  0  0  0
   49.3604   32.7360   -4.2471 S   0  0  0  0  0  0  0  0  0  0  0  0
   50.0510   34.7123   -4.5053 S   0  0  0  0  0  0  0  0  0  0  0  0
   52.1604   34.6992   -4.5036 S   0  0  0  0  0  0  0  0  0  0  0  0
   52.8510   36.6755   -4.7618 S   0  0  0  0  0  0  0  0  0  0  0  0
   54.9604   36.6624   -4.7601 S   0  0  0  0  0  0  0  0  0  0  0  0
   55.6510   38.6387   -5.0183 S   0  0  0  0  0  0  0  0  0  0  0  0
   57.7604   38.6256   -5.0166 S   0  0  0  0  0  0  0  0  0  0  0  0
   58.4510   40.6019   -5.2748 S   0  0  0  0  0  0  0  0  0  0  0  0
   60.5603   40.5888   -5.2731 S   0  0  0  0  0  0  0  0  0  0  0  0
   61.2510   42.5652   -5.5312 S   0  0  0  0  0  0  0  0  0  0  0  0
   63.3603   42.5521   -5.5295 S   0  0  0  0  0  0  0  0  0  0  0  0
   64.0510   44.5284   -5.7877 S   0  0  0  0  0  0  0  0  0  0  0  0
   66.1603   44.5153   -5.7860 S   0  0  0  0  0  0  0  0  0  0  0  0
   66.8510   46.4916   -6.0442 S   0  0  0  0  0  0  0  0  0  0  0  0
   68.9603   46.4785   -6.0425 S   0  0  0  0  0  0  0  0  0  0  0  0
   69.6510   48.4548   -6.3007 S   0  0  0  0  0  0  0  0  0  0  0  0
   71.7603   48.4417   -6.2990 S   0  0  0  0  0  0  0  0  0  0  0  0
   72.4510   50.4180   -6.5571 S   0  0  0  0  0  0  0  0  0  0  0  0
   74.5603   50.4049   -6.5554 S   0  0  0  0  0  0  0  0  0  0  0  0
   75.2509   52.3813   -6.8136 S   0  0  0  0  0  0  0  0  0  0  0  0
   77.3603   52.3682   -6.8119 S   0  0  0  0  0  0  0  0  0  0  0  0
   78.0509   54.3445   -7.0701 S   0  0  0  0  0  0  0  0  0  0  0  0
   80.1603   54.3314   -7.0684 S   0  0  0  0  0  0  0  0  0  0  0  0
   80.8509   56.3077   -7.3266 S   0  0  0  0  0  0  0  0  0  0  0  0
   82.9603   56.2946   -7.3249 S   0  0  0  0  0  0  0  0  0  0  0  0
   83.6509   58.2709   -7.5831 S   0  0  0  0  0  0  0  0  0  0  0  0
   85.7603   58.2578   -7.5813 S   0  0  0  0  0  0  0  0  0  0  0  0
   86.4509   60.2341   -7.8395 S   0  0  0  0  0  0  0  0  0  0  0  0
   88.5603   60.2210   -7.8378 S   0  0  0  0  0  0  0  0  0  0  0  0
   89.2509   62.1974   -8.0960 S   0  0  0  0  0  0  0  0  0  0  0  0
   91.3603   62.1843   -8.0943 S   0  0  0  0  0  0  0  0  0  0  0  0
   92.0509   64.1606   -8.3525 S   0  0  0  0  0  0  0  0  0  0  0  0
   94.1603   64.1475   -8.3508 S   0  0  0  0  0  0  0  0  0  0  0  0
   94.8509   66.1238   -8.6090 S   0  0  0  0  0  0  0  0  0  0  0  0
   96.9602   66.1107   -8.6072 S   0  0  0  0  0  0  0  0  0  0  0  0
   97.6509   68.0870   -8.8654 S   0  0  0  0  0  0  0  0  0  0  0  0
   99.7602   68.0739   -8.8637 S   0  0  0  0  0  0  0  0  0  0  0  0
  100.4509   70.0502   -9.1220 S   0  0  0  0  0  0  0  0  0  0  0  0
  102.5593   70.0371   -9.1196 S   0  0  0  0  0  0  0  0  0  0  0  0
  103.2485   72.0117   -9.3781 S   0  0  0  0  0  0  0  0  0  0  0  0
  105.3481   71.9811   -9.3953 S   0  0  0  0  0  0  0  0  0  0  0  0
  106.0439   73.9376   -9.5752 S   0  0  0  0  0  0  0  0  0  0  0  0
  108.1286   73.8893   -9.6261 S   0  0  0  0  0  0  0  0  0  0  0  0
  108.7561   73.2110   -7.7856 S   0  0  0  0  0  0  0  0  0  0  0  0
   11.1204    9.8174   12.2584 H   0  0  0  0  0  0  0  0  0  0  0  0
   11.3180   10.7174   10.1647 H   0  0  0  0  0  0  0  0  0  0  0  0
    9.8833    9.6704   10.3411 H   0  0  0  0  0  0  0  0  0  0  0  0
   11.0722    9.1377    8.2567 H   0  0  0  0  0  0  0  0  0  0  0  0
   11.1275    7.7628    9.3722 H   0  0  0  0  0  0  0  0  0  0  0  0
   13.4201    8.4424   10.1230 H   0  0  0  0  0  0  0  0  0  0  0  0
   13.3771    9.8140    9.0150 H   0  0  0  0  0  0  0  0  0  0  0  0
   13.1934    6.8605    8.2353 H   0  0  0  0  0  0  0  0  0  0  0  0
   14.6273    7.8938    8.0624 H   0  0  0  0  0  0  0  0  0  0  0  0
   13.3572    9.3254    6.6594 H   0  0  0  0  0  0  0  0  0  0  0  0
   13.2005    6.5541    5.9505 H   0  0  0  0  0  0  0  0  0  0  0  0
   13.3605    8.9051    4.3003 H   0  0  0  0  0  0  0  0  0  0  0  0
   13.2163    6.1214    3.5430 H   0  0  0  0  0  0  0  0  0  0  0  0
   13.3883    8.4679    1.8928 H   0  0  0  0  0  0  0  0  0  0  0  0
  110.1053   73.2157   -7.8722 H   0  0  0  0  0  0  0  0  0  0  0  0
  1  2  1  0  0  0  0
  1 82  1  0  0  0  0
  2  3  1  0  0  0  0
  2 83  1  0  0  0  0
  2 84  1  0  0  0  0
  3  4  1  0  0  0  0
  3 85  1  0  0  0  0
  3 86  1  0  0  0  0
  4  5  1  0  0  0  0
  4 87  1  0  0  0  0
  4 88  1  0  0  0  0
  5  6  1  0  0  0  0
  5 89  1  0  0  0  0
  5 90  1  0  0  0  0
  6  7  1  0  0  0  0
  6 91  1  0  0  0  0
  7  8  1  0  0  0  0
  7 92  1  0  0  0  0
  8  9  1  0  0  0  0
  8 93  1  0  0  0  0
  9 10  1  0  0  0  0
  9 94  1  0  0  0  0
 10 11  1  0  0  0  0
 10 95  1  0  0  0  0
 11 12  1  0  0  0  0
 12 13  1  0  0  0  0
 13 14  1  0  0  0  0
 14 15  1  0  0  0  0
 15 16  1  0  0  0  0
 16 17  1  0  0  0  0
 17 18  1  0  0  0  0
 18 19  1  0  0  0  0
 19 20  1  0  0  0  0
 20 21  1  0  0  0  0
 21 22  1  0  0  0  0
 22 23  1  0  0  0  0
 23 24  1  0  0  0  0
 24 25  1  0  0  0  0
 25 26  1  0  0  0  0
 26 27  1  0  0  0  0
 27 28  1  0  0  0  0
 28 29  1  0  0  0  0
 29 30  1  0  0  0  0
 30 31  1  0  0  0  0
 31 32  1  0  0  0  0
 32 33  1  0  0  0  0
 33 34  1  0  0  0  0
 34 35  1  0  0  0  0
 35 36  1  0  0  0  0
 36 37  1  0  0  0  0
 37 38  1  0  0  0  0
 38 39  1  0  0  0  0
 39 40  1  0  0  0  0
 40 41  1  0  0  0  0
 41 42  1  0  0  0  0
 42 43  1  0  0  0  0
 43 44  1  0  0  0  0
 44 45  1  0  0  0  0
 45 46  1  0  0  0  0
 46 47  1  0  0  0  0
 47 48  1  0  0  0  0
 48 49  1  0  0  0  0
 49 50  1  0  0  0  0
 50 51  1  0  0  0  0
 51 52  1  0  0  0  0
 52 53  1  0  0  0  0
 53 54  1  0  0  0  0
 54 55  1  0  0  0  0
 55 56  1  0  0  0  0
 56 57  1  0  0  0  0
 57 58  1  0  0  0  0
 58 59  1  0  0  0  0
 59 60  1  0  0  0  0
 60 61  1  0  0  0  0
 61 62  1  0  0  0  0
 62 63  1  0  0  0  0
 63 64  1  0  0  0  0
 64 65  1  0  0  0  0
 65 66  1  0  0  0  0
 66 67  1  0  0  0  0
 67 68  1  0  0  0  0
 68 69  1  0  0  0  0
 69 70  1  0  0  0  0
 70 71  1  0  0  0  0
 71 72  1  0  0  0  0
 72 73  1  0  0  0  0
 73 74  1  0  0  0  0
 74 75  1  0  0  0  0
 75 76  1  0  0  0  0
 76 77  1  0  0  0  0
 77 78  1  0  0  0  0
 78 79  1  0  0  0  0
 79 80  1  0  0  0  0
 80 81  1  0  0  0  0
 81 96  1  0  0  0  0
M  END
$$$$
