
 OpenBabel04232216583D

167166  0  0  0  0  0  0  0  0999 V2000
   19.7656   26.6215    0.9708 N   0  0  0  0  0  0  0  0  0  0  0  0
   21.1807   26.8144    1.1006 N   0  0  0  0  0  0  0  0  0  0  0  0
   21.5012   27.3392    2.3958 N   0  0  0  0  0  0  0  0  0  0  0  0
   21.0720   26.4517    3.4389 N   0  0  0  0  0  0  0  0  0  0  0  0
   21.7069   25.1810    3.2758 N   0  0  0  0  0  0  0  0  0  0  0  0
   23.1404   25.3512    3.3964 N   0  0  0  0  0  0  0  0  0  0  0  0
   23.4576   25.9474    4.6595 N   0  0  0  0  0  0  0  0  0  0  0  0
   23.0126   25.0682    5.7067 N   0  0  0  0  0  0  0  0  0  0  0  0
   23.6552   23.7763    5.5804 N   0  0  0  0  0  0  0  0  0  0  0  0
   25.0742   23.9441    5.6364 N   0  0  0  0  0  0  0  0  0  0  0  0
   25.4176   24.5131    6.9003 N   0  0  0  0  0  0  0  0  0  0  0  0
   24.9520   23.6705    7.9567 N   0  0  0  0  0  0  0  0  0  0  0  0
   25.5573   22.3717    7.8233 N   0  0  0  0  0  0  0  0  0  0  0  0
   26.9838   22.5035    7.9062 N   0  0  0  0  0  0  0  0  0  0  0  0
   27.3445   23.1053    9.1545 N   0  0  0  0  0  0  0  0  0  0  0  0
   26.8805   22.2658   10.2338 N   0  0  0  0  0  0  0  0  0  0  0  0
   27.4787   20.9671   10.1116 N   0  0  0  0  0  0  0  0  0  0  0  0
   28.9028   21.0979   10.1526 N   0  0  0  0  0  0  0  0  0  0  0  0
   29.2870   21.6912   11.4037 N   0  0  0  0  0  0  0  0  0  0  0  0
   28.8082   20.8812   12.4818 N   0  0  0  0  0  0  0  0  0  0  0  0
   29.3957   19.5801   12.3866 N   0  0  0  0  0  0  0  0  0  0  0  0
   30.8388   19.6680   12.4447 N   0  0  0  0  0  0  0  0  0  0  0  0
   31.2223   20.2983   13.6602 N   0  0  0  0  0  0  0  0  0  0  0  0
   30.7688   19.4892   14.7466 N   0  0  0  0  0  0  0  0  0  0  0  0
   31.3036   18.1671   14.6256 N   0  0  0  0  0  0  0  0  0  0  0  0
   32.7271   18.2555   14.6639 N   0  0  0  0  0  0  0  0  0  0  0  0
   33.1462   18.8718   15.8925 N   0  0  0  0  0  0  0  0  0  0  0  0
   32.7014   18.0778   17.0190 N   0  0  0  0  0  0  0  0  0  0  0  0
   33.2122   16.7608   16.8886 N   0  0  0  0  0  0  0  0  0  0  0  0
   34.6674   16.8005   16.9443 N   0  0  0  0  0  0  0  0  0  0  0  0
   35.0918   17.4485   18.1577 N   0  0  0  0  0  0  0  0  0  0  0  0
   34.6355   16.6806   19.2772 N   0  0  0  0  0  0  0  0  0  0  0  0
   35.1566   15.3330   19.2073 N   0  0  0  0  0  0  0  0  0  0  0  0
   36.5786   15.3801   19.1959 N   0  0  0  0  0  0  0  0  0  0  0  0
   37.0186   16.0151   20.4035 N   0  0  0  0  0  0  0  0  0  0  0  0
   36.5437   15.2701   21.5433 N   0  0  0  0  0  0  0  0  0  0  0  0
   37.0371   13.9266   21.4641 N   0  0  0  0  0  0  0  0  0  0  0  0
   38.4850   13.9435   21.4749 N   0  0  0  0  0  0  0  0  0  0  0  0
   38.9388   14.5961   22.6568 N   0  0  0  0  0  0  0  0  0  0  0  0
   38.4718   13.8623   23.7991 N   0  0  0  0  0  0  0  0  0  0  0  0
   38.9379   12.5109   23.7421 N   0  0  0  0  0  0  0  0  0  0  0  0
   40.3677   12.5073   23.7384 N   0  0  0  0  0  0  0  0  0  0  0  0
   40.8641   13.1567   24.9238 N   0  0  0  0  0  0  0  0  0  0  0  0
   40.3639   12.4553   26.0406 N   0  0  0  0  0  0  0  0  0  0  0  0
   40.8292   11.0872   26.0289 N   0  0  0  0  0  0  0  0  0  0  0  0
   42.2595   11.0688   26.0050 N   0  0  0  0  0  0  0  0  0  0  0  0
   42.7846   11.6903   27.1837 N   0  0  0  0  0  0  0  0  0  0  0  0
   42.2861   11.0338   28.3344 N   0  0  0  0  0  0  0  0  0  0  0  0
   42.7348    9.6691   28.3136 N   0  0  0  0  0  0  0  0  0  0  0  0
   44.1626    9.6304   28.2616 N   0  0  0  0  0  0  0  0  0  0  0  0
   44.6981   10.2569   29.4308 N   0  0  0  0  0  0  0  0  0  0  0  0
   44.2025    9.6118   30.5964 N   0  0  0  0  0  0  0  0  0  0  0  0
   44.6311    8.2419   30.5800 N   0  0  0  0  0  0  0  0  0  0  0  0
   46.0611    8.1830   30.5177 N   0  0  0  0  0  0  0  0  0  0  0  0
   46.6147    8.8182   31.6790 N   0  0  0  0  0  0  0  0  0  0  0  0
   46.1174    8.1873   32.8561 N   0  0  0  0  0  0  0  0  0  0  0  0
   46.5397    6.7954   32.8701 N   0  0  0  0  0  0  0  0  0  0  0  0
   47.9576    6.7368   32.7769 N   0  0  0  0  0  0  0  0  0  0  0  0
   48.5240    7.4063   33.9116 N   0  0  0  0  0  0  0  0  0  0  0  0
   48.0309    6.7685   35.0906 N   0  0  0  0  0  0  0  0  0  0  0  0
   48.4182    5.3796   35.0907 N   0  0  0  0  0  0  0  0  0  0  0  0
   49.8528    5.2642   35.0506 N   0  0  0  0  0  0  0  0  0  0  0  0
   50.4422    5.9357   36.1655 N   0  0  0  0  0  0  0  0  0  0  0  0
   49.9860    5.3159   37.3846 N   0  0  0  0  0  0  0  0  0  0  0  0
   50.3274    3.9424   37.3703 N   0  0  0  0  0  0  0  0  0  0  0  0
   51.7454    3.8183   37.2764 N   0  0  0  0  0  0  0  0  0  0  0  0
   52.3402    4.4912   38.4023 N   0  0  0  0  0  0  0  0  0  0  0  0
   51.8551    3.9024   39.6167 N   0  0  0  0  0  0  0  0  0  0  0  0
   52.2107    2.4969   39.6367 N   0  0  0  0  0  0  0  0  0  0  0  0
   53.6377    2.3932   39.5421 N   0  0  0  0  0  0  0  0  0  0  0  0
   54.2619    3.0484   40.6677 N   0  0  0  0  0  0  0  0  0  0  0  0
   53.8084    2.4654   41.9359 N   0  0  0  0  0  0  0  0  0  0  0  0
   54.1472    1.0426   41.9131 C   0  0  0  0  0  0  0  0  0  0  0  0
   53.6526    0.4216   43.1952 C   0  0  0  0  0  0  0  0  0  0  0  0
   54.0195   -1.0485   43.2280 C   0  0  0  0  0  0  0  0  0  0  0  0
   53.5361   -1.6747   44.5193 C   0  0  0  0  0  0  0  0  0  0  0  0
   53.9014   -3.1440   44.5555 C   0  0  0  0  0  0  0  0  0  0  0  0
   53.4195   -3.7711   45.8491 C   0  0  0  0  0  0  0  0  0  0  0  0
   53.7861   -5.2384   45.8813 C   0  0  0  0  0  0  0  0  0  0  0  0
   19.5576   26.1919    0.0817 H   0  0  0  0  0  0  0  0  0  0  0  0
   19.2731   27.5081    1.0738 H   0  0  0  0  0  0  0  0  0  0  0  0
   21.5479   27.4316    0.3661 H   0  0  0  0  0  0  0  0  0  0  0  0
   21.0737   28.2461    2.5571 H   0  0  0  0  0  0  0  0  0  0  0  0
   20.0496   26.3424    3.3835 H   0  0  0  0  0  0  0  0  0  0  0  0
   21.4747   24.7656    2.3649 H   0  0  0  0  0  0  0  0  0  0  0  0
   23.4754   25.9903    2.6839 H   0  0  0  0  0  0  0  0  0  0  0  0
   22.9970   26.8671    4.7350 H   0  0  0  0  0  0  0  0  0  0  0  0
   21.9890   24.9558    5.6464 H   0  0  0  0  0  0  0  0  0  0  0  0
   23.4385   23.3609    4.6784 H   0  0  0  0  0  0  0  0  0  0  0  0
   25.3733   24.5559    4.8656 H   0  0  0  0  0  0  0  0  0  0  0  0
   24.9658   25.4199    7.0113 H   0  0  0  0  0  0  0  0  0  0  0  0
   23.9437   23.5616    7.9206 H   0  0  0  0  0  0  0  0  0  0  0  0
   25.2958   21.9731    6.9114 H   0  0  0  0  0  0  0  0  0  0  0  0
   27.3140   23.1275    7.1691 H   0  0  0  0  0  0  0  0  0  0  0  0
   26.9108   24.0411    9.2127 H   0  0  0  0  0  0  0  0  0  0  0  0
   25.8611   22.1722   10.1523 H   0  0  0  0  0  0  0  0  0  0  0  0
   27.2323   20.5708    9.2111 H   0  0  0  0  0  0  0  0  0  0  0  0
   29.1985   21.6917    9.3609 H   0  0  0  0  0  0  0  0  0  0  0  0
   28.8660   22.6092   11.5090 H   0  0  0  0  0  0  0  0  0  0  0  0
   27.7841   20.8130   12.4373 H   0  0  0  0  0  0  0  0  0  0  0  0
   29.1461   19.1489   11.4972 H   0  0  0  0  0  0  0  0  0  0  0  0
   31.1671   20.2335   11.6651 H   0  0  0  0  0  0  0  0  0  0  0  0
   30.8056   21.2350   13.7158 H   0  0  0  0  0  0  0  0  0  0  0  0
   29.7600   19.3912   14.7085 H   0  0  0  0  0  0  0  0  0  0  0  0
   30.9917   17.7495   13.7371 H   0  0  0  0  0  0  0  0  0  0  0  0
   33.0736   18.8276   13.8983 H   0  0  0  0  0  0  0  0  0  0  0  0
   32.7383   19.8192   15.9322 H   0  0  0  0  0  0  0  0  0  0  0  0
   31.6841   18.0115   16.9928 H   0  0  0  0  0  0  0  0  0  0  0  0
   32.8967   16.3324   16.0147 H   0  0  0  0  0  0  0  0  0  0  0  0
   34.9932   17.3825   16.1756 H   0  0  0  0  0  0  0  0  0  0  0  0
   34.7023   18.4021   18.1891 H   0  0  0  0  0  0  0  0  0  0  0  0
   33.6175   16.6183   19.2707 H   0  0  0  0  0  0  0  0  0  0  0  0
   34.8168   14.9211   18.3234 H   0  0  0  0  0  0  0  0  0  0  0  0
   36.8996   15.9375   18.4102 H   0  0  0  0  0  0  0  0  0  0  0  0
   36.6165   16.9618   20.4207 H   0  0  0  0  0  0  0  0  0  0  0  0
   35.5258   15.2265   21.5040 H   0  0  0  0  0  0  0  0  0  0  0  0
   36.6893   13.5115   20.5863 H   0  0  0  0  0  0  0  0  0  0  0  0
   38.7856   14.4881   20.6469 H   0  0  0  0  0  0  0  0  0  0  0  0
   38.5643   15.5383   22.7116 H   0  0  0  0  0  0  0  0  0  0  0  0
   37.4543   13.8407   23.7647 H   0  0  0  0  0  0  0  0  0  0  0  0
   38.5976   12.0811   22.8842 H   0  0  0  0  0  0  0  0  0  0  0  0
   40.6986   13.0448   22.9430 H   0  0  0  0  0  0  0  0  0  0  0  0
   40.4674   14.1067   24.9195 H   0  0  0  0  0  0  0  0  0  0  0  0
   39.3529   12.4474   26.0235 H   0  0  0  0  0  0  0  0  0  0  0  0
   40.4958   10.6750   25.1588 H   0  0  0  0  0  0  0  0  0  0  0  0
   42.5582   11.5850   25.1726 H   0  0  0  0  0  0  0  0  0  0  0  0
   42.4614   12.6551   27.2029 H   0  0  0  0  0  0  0  0  0  0  0  0
   41.2749   11.0223   28.3316 H   0  0  0  0  0  0  0  0  0  0  0  0
   42.3872    9.2609   27.4466 H   0  0  0  0  0  0  0  0  0  0  0  0
   44.4542   10.1363   27.4083 H   0  0  0  0  0  0  0  0  0  0  0  0
   44.3535   11.2149   29.4489 H   0  0  0  0  0  0  0  0  0  0  0  0
   43.1891    9.6242   30.5721 H   0  0  0  0  0  0  0  0  0  0  0  0
   44.2564    7.8363   29.7188 H   0  0  0  0  0  0  0  0  0  0  0  0
   46.3363    8.6829   29.6515 H   0  0  0  0  0  0  0  0  0  0  0  0
   46.2736    9.7824   31.6801 H   0  0  0  0  0  0  0  0  0  0  0  0
   45.1046    8.2138   32.8411 H   0  0  0  0  0  0  0  0  0  0  0  0
   46.1490    6.3972   32.0152 H   0  0  0  0  0  0  0  0  0  0  0  0
   48.2427    7.2271   31.9304 H   0  0  0  0  0  0  0  0  0  0  0  0
   48.1979    8.3831   33.8749 H   0  0  0  0  0  0  0  0  0  0  0  0
   47.0054    6.8132   35.0972 H   0  0  0  0  0  0  0  0  0  0  0  0
   48.0339    4.9331   34.2528 H   0  0  0  0  0  0  0  0  0  0  0  0
   50.1670    5.7263   34.1990 H   0  0  0  0  0  0  0  0  0  0  0  0
   50.1375    6.9019   36.1643 H   0  0  0  0  0  0  0  0  0  0  0  0
   48.9669    5.3958   37.3712 H   0  0  0  0  0  0  0  0  0  0  0  0
   49.9188    3.5053   36.5494 H   0  0  0  0  0  0  0  0  0  0  0  0
   52.0340    4.2950   36.4241 H   0  0  0  0  0  0  0  0  0  0  0  0
   52.0368    5.4757   38.3496 H   0  0  0  0  0  0  0  0  0  0  0  0
   50.8297    3.9987   39.6292 H   0  0  0  0  0  0  0  0  0  0  0  0
   51.7761    2.0567   38.8107 H   0  0  0  0  0  0  0  0  0  0  0  0
   53.9595    2.8218   38.6628 H   0  0  0  0  0  0  0  0  0  0  0  0
   53.9882    4.0416   40.6398 H   0  0  0  0  0  0  0  0  0  0  0  0
   52.7850    2.5485   41.9410 H   0  0  0  0  0  0  0  0  0  0  0  0
   55.2317    0.9344   41.8283 H   0  0  0  0  0  0  0  0  0  0  0  0
   53.6823    0.5166   41.0647 H   0  0  0  0  0  0  0  0  0  0  0  0
   52.5645    0.5286   43.2691 H   0  0  0  0  0  0  0  0  0  0  0  0
   54.1092    0.9342   44.0467 H   0  0  0  0  0  0  0  0  0  0  0  0
   55.1069   -1.1598   43.1499 H   0  0  0  0  0  0  0  0  0  0  0  0
   53.5632   -1.5647   42.3756 H   0  0  0  0  0  0  0  0  0  0  0  0
   52.4491   -1.5641   44.5981 H   0  0  0  0  0  0  0  0  0  0  0  0
   53.9941   -1.1610   45.3717 H   0  0  0  0  0  0  0  0  0  0  0  0
   54.9884   -3.2555   44.4749 H   0  0  0  0  0  0  0  0  0  0  0  0
   53.4427   -3.6586   43.7038 H   0  0  0  0  0  0  0  0  0  0  0  0
   52.3330   -3.6632   45.9297 H   0  0  0  0  0  0  0  0  0  0  0  0
   53.8793   -3.2599   46.7011 H   0  0  0  0  0  0  0  0  0  0  0  0
   53.3220   -5.7604   45.0399 H   0  0  0  0  0  0  0  0  0  0  0  0
   53.4397   -5.6903   46.8120 H   0  0  0  0  0  0  0  0  0  0  0  0
   54.8711   -5.3564   45.8128 H   0  0  0  0  0  0  0  0  0  0  0  0
  1  2  1  0  0  0  0
  1 80  1  0  0  0  0
  1 81  1  0  0  0  0
  2  3  1  0  0  0  0
  2 82  1  0  0  0  0
  3  4  1  0  0  0  0
  3 83  1  0  0  0  0
  4  5  1  0  0  0  0
  4 84  1  0  0  0  0
  5  6  1  0  0  0  0
  5 85  1  0  0  0  0
  6  7  1  0  0  0  0
  6 86  1  0  0  0  0
  7  8  1  0  0  0  0
  7 87  1  0  0  0  0
  8  9  1  0  0  0  0
  8 88  1  0  0  0  0
  9 10  1  0  0  0  0
  9 89  1  0  0  0  0
 10 11  1  0  0  0  0
 10 90  1  0  0  0  0
 11 12  1  0  0  0  0
 11 91  1  0  0  0  0
 12 13  1  0  0  0  0
 12 92  1  0  0  0  0
 13 14  1  0  0  0  0
 13 93  1  0  0  0  0
 14 15  1  0  0  0  0
 14 94  1  0  0  0  0
 15 16  1  0  0  0  0
 15 95  1  0  0  0  0
 16 17  1  0  0  0  0
 16 96  1  0  0  0  0
 17 18  1  0  0  0  0
 17 97  1  0  0  0  0
 18 19  1  0  0  0  0
 18 98  1  0  0  0  0
 19 20  1  0  0  0  0
 19 99  1  0  0  0  0
 20 21  1  0  0  0  0
 20100  1  0  0  0  0
 21 22  1  0  0  0  0
 21101  1  0  0  0  0
 22 23  1  0  0  0  0
 22102  1  0  0  0  0
 23 24  1  0  0  0  0
 23103  1  0  0  0  0
 24 25  1  0  0  0  0
 24104  1  0  0  0  0
 25 26  1  0  0  0  0
 25105  1  0  0  0  0
 26 27  1  0  0  0  0
 26106  1  0  0  0  0
 27 28  1  0  0  0  0
 27107  1  0  0  0  0
 28 29  1  0  0  0  0
 28108  1  0  0  0  0
 29 30  1  0  0  0  0
 29109  1  0  0  0  0
 30 31  1  0  0  0  0
 30110  1  0  0  0  0
 31 32  1  0  0  0  0
 31111  1  0  0  0  0
 32 33  1  0  0  0  0
 32112  1  0  0  0  0
 33 34  1  0  0  0  0
 33113  1  0  0  0  0
 34 35  1  0  0  0  0
 34114  1  0  0  0  0
 35 36  1  0  0  0  0
 35115  1  0  0  0  0
 36 37  1  0  0  0  0
 36116  1  0  0  0  0
 37 38  1  0  0  0  0
 37117  1  0  0  0  0
 38 39  1  0  0  0  0
 38118  1  0  0  0  0
 39 40  1  0  0  0  0
 39119  1  0  0  0  0
 40 41  1  0  0  0  0
 40120  1  0  0  0  0
 41 42  1  0  0  0  0
 41121  1  0  0  0  0
 42 43  1  0  0  0  0
 42122  1  0  0  0  0
 43 44  1  0  0  0  0
 43123  1  0  0  0  0
 44 45  1  0  0  0  0
 44124  1  0  0  0  0
 45 46  1  0  0  0  0
 45125  1  0  0  0  0
 46 47  1  0  0  0  0
 46126  1  0  0  0  0
 47 48  1  0  0  0  0
 47127  1  0  0  0  0
 48 49  1  0  0  0  0
 48128  1  0  0  0  0
 49 50  1  0  0  0  0
 49129  1  0  0  0  0
 50 51  1  0  0  0  0
 50130  1  0  0  0  0
 51 52  1  0  0  0  0
 51131  1  0  0  0  0
 52 53  1  0  0  0  0
 52132  1  0  0  0  0
 53 54  1  0  0  0  0
 53133  1  0  0  0  0
 54 55  1  0  0  0  0
 54134  1  0  0  0  0
 55 56  1  0  0  0  0
 55135  1  0  0  0  0
 56 57  1  0  0  0  0
 56136  1  0  0  0  0
 57 58  1  0  0  0  0
 57137  1  0  0  0  0
 58 59  1  0  0  0  0
 58138  1  0  0  0  0
 59 60  1  0  0  0  0
 59139  1  0  0  0  0
 60 61  1  0  0  0  0
 60140  1  0  0  0  0
 61 62  1  0  0  0  0
 61141  1  0  0  0  0
 62 63  1  0  0  0  0
 62142  1  0  0  0  0
 63 64  1  0  0  0  0
 63143  1  0  0  0  0
 64 65  1  0  0  0  0
 64144  1  0  0  0  0
 65 66  1  0  0  0  0
 65145  1  0  0  0  0
 66 67  1  0  0  0  0
 66146  1  0  0  0  0
 67 68  1  0  0  0  0
 67147  1  0  0  0  0
 68 69  1  0  0  0  0
 68148  1  0  0  0  0
 69 70  1  0  0  0  0
 69149  1  0  0  0  0
 70 71  1  0  0  0  0
 70150  1  0  0  0  0
 71 72  1  0  0  0  0
 71151  1  0  0  0  0
 72 73  1  0  0  0  0
 72152  1  0  0  0  0
 73 74  1  0  0  0  0
 73153  1  0  0  0  0
 73154  1  0  0  0  0
 74 75  1  0  0  0  0
 74155  1  0  0  0  0
 74156  1  0  0  0  0
 75 76  1  0  0  0  0
 75157  1  0  0  0  0
 75158  1  0  0  0  0
 76 77  1  0  0  0  0
 76159  1  0  0  0  0
 76160  1  0  0  0  0
 77 78  1  0  0  0  0
 77161  1  0  0  0  0
 77162  1  0  0  0  0
 78 79  1  0  0  0  0
 78163  1  0  0  0  0
 78164  1  0  0  0  0
 79165  1  0  0  0  0
 79166  1  0  0  0  0
 79167  1  0  0  0  0
M  END
$$$$
