
 OpenBabel04232216543D

220219  0  0  0  0  0  0  0  0999 V2000
    0.9922   -9.5721    0.0901 C   0  0  0  0  0  0  0  0  0  0  0  0
    2.5056   -9.5701    0.0930 C   0  0  0  0  0  0  0  0  0  0  0  0
    3.0287   -8.3421   -0.6347 C   0  0  0  0  0  0  0  0  0  0  0  0
    4.5504   -8.3317   -0.6345 C   0  0  0  0  0  0  0  0  0  0  0  0
    5.0783   -7.1015   -1.3639 C   0  0  0  0  0  0  0  0  0  0  0  0
    6.5332   -7.1216   -1.3461 N   0  0  0  0  0  0  0  0  0  0  0  0
    6.9802   -5.9683   -2.0302 N   0  0  0  0  0  0  0  0  0  0  0  0
    8.4016   -5.9544   -2.0327 N   0  0  0  0  0  0  0  0  0  0  0  0
    8.8992   -4.8130   -2.7135 N   0  0  0  0  0  0  0  0  0  0  0  0
   10.3125   -4.8159   -2.7109 N   0  0  0  0  0  0  0  0  0  0  0  0
   10.8021   -5.9821   -3.3639 N   0  0  0  0  0  0  0  0  0  0  0  0
   12.2077   -5.9841   -3.3560 N   0  0  0  0  0  0  0  0  0  0  0  0
   12.6799   -7.1551   -4.0091 N   0  0  0  0  0  0  0  0  0  0  0  0
   14.1035   -7.1716   -4.0097 N   0  0  0  0  0  0  0  0  0  0  0  0
   14.5852   -8.3321   -4.6549 N   0  0  0  0  0  0  0  0  0  0  0  0
   15.9984   -8.3390   -4.6526 N   0  0  0  0  0  0  0  0  0  0  0  0
   16.4701   -9.4979   -5.3004 N   0  0  0  0  0  0  0  0  0  0  0  0
   17.8803   -9.5009   -5.2927 N   0  0  0  0  0  0  0  0  0  0  0  0
   18.3553  -10.6653   -5.9454 N   0  0  0  0  0  0  0  0  0  0  0  0
   19.7770  -10.6854   -5.9517 N   0  0  0  0  0  0  0  0  0  0  0  0
   20.2591  -11.8441   -6.6026 N   0  0  0  0  0  0  0  0  0  0  0  0
   21.6723  -11.8509   -6.5975 N   0  0  0  0  0  0  0  0  0  0  0  0
   22.1448  -13.0101   -7.2471 N   0  0  0  0  0  0  0  0  0  0  0  0
   23.5476  -13.0106   -7.2409 N   0  0  0  0  0  0  0  0  0  0  0  0
   24.0420  -14.1798   -7.8964 N   0  0  0  0  0  0  0  0  0  0  0  0
   25.4605  -14.1937   -7.9003 N   0  0  0  0  0  0  0  0  0  0  0  0
   25.9435  -15.3570   -8.5518 N   0  0  0  0  0  0  0  0  0  0  0  0
   27.3541  -15.3624   -8.5508 N   0  0  0  0  0  0  0  0  0  0  0  0
   27.8220  -16.5185   -9.1989 N   0  0  0  0  0  0  0  0  0  0  0  0
   29.2533  -16.5196   -9.1951 N   0  0  0  0  0  0  0  0  0  0  0  0
   29.7225  -17.7239   -9.8701 C   0  0  0  0  0  0  0  0  0  0  0  0
   31.2459  -17.7356   -9.8720 C   0  0  0  0  0  0  0  0  0  0  0  0
   31.7636  -18.9828  -10.5711 C   0  0  0  0  0  0  0  0  0  0  0  0
   33.2811  -18.9918  -10.5738 C   0  0  0  0  0  0  0  0  0  0  0  0
   33.7935  -20.2367  -11.2716 C   0  0  0  0  0  0  0  0  0  0  0  0
   35.3093  -20.2428  -11.2750 C   0  0  0  0  0  0  0  0  0  0  0  0
   35.8207  -21.4863  -11.9743 C   0  0  0  0  0  0  0  0  0  0  0  0
   37.3362  -21.4930  -11.9758 C   0  0  0  0  0  0  0  0  0  0  0  0
   37.8475  -22.7374  -12.6732 C   0  0  0  0  0  0  0  0  0  0  0  0
   39.3628  -22.7431  -12.6764 C   0  0  0  0  0  0  0  0  0  0  0  0
   39.8741  -23.9865  -13.3757 C   0  0  0  0  0  0  0  0  0  0  0  0
   41.3895  -23.9922  -13.3789 C   0  0  0  0  0  0  0  0  0  0  0  0
   41.9008  -25.2356  -14.0781 C   0  0  0  0  0  0  0  0  0  0  0  0
   43.4162  -25.2413  -14.0813 C   0  0  0  0  0  0  0  0  0  0  0  0
   43.9274  -26.4848  -14.7805 C   0  0  0  0  0  0  0  0  0  0  0  0
   45.4428  -26.4905  -14.7837 C   0  0  0  0  0  0  0  0  0  0  0  0
   45.9541  -27.7339  -15.4830 C   0  0  0  0  0  0  0  0  0  0  0  0
   47.4695  -27.7396  -15.4862 C   0  0  0  0  0  0  0  0  0  0  0  0
   47.9808  -28.9830  -16.1854 C   0  0  0  0  0  0  0  0  0  0  0  0
   49.4961  -28.9897  -16.1869 C   0  0  0  0  0  0  0  0  0  0  0  0
   50.0074  -30.2331  -16.8861 C   0  0  0  0  0  0  0  0  0  0  0  0
   51.5228  -30.2388  -16.8893 C   0  0  0  0  0  0  0  0  0  0  0  0
   52.0341  -31.4812  -17.5903 C   0  0  0  0  0  0  0  0  0  0  0  0
   53.5495  -31.4879  -17.5917 C   0  0  0  0  0  0  0  0  0  0  0  0
   54.0608  -32.7293  -18.2945 C   0  0  0  0  0  0  0  0  0  0  0  0
   55.5761  -32.7350  -18.2977 C   0  0  0  0  0  0  0  0  0  0  0  0
   56.0874  -33.9774  -18.9986 C   0  0  0  0  0  0  0  0  0  0  0  0
   57.6028  -33.9822  -19.0036 C   0  0  0  0  0  0  0  0  0  0  0  0
   58.1141  -35.2246  -19.7046 C   0  0  0  0  0  0  0  0  0  0  0  0
   59.6294  -35.2283  -19.7113 C   0  0  0  0  0  0  0  0  0  0  0  0
   60.1407  -36.4707  -20.4123 C   0  0  0  0  0  0  0  0  0  0  0  0
   61.6561  -36.4744  -20.4190 C   0  0  0  0  0  0  0  0  0  0  0  0
   62.1674  -37.7169  -21.1200 C   0  0  0  0  0  0  0  0  0  0  0  0
   63.6828  -37.7206  -21.1267 C   0  0  0  0  0  0  0  0  0  0  0  0
   64.1941  -38.9630  -21.8277 C   0  0  0  0  0  0  0  0  0  0  0  0
   65.7094  -38.9667  -21.8344 C   0  0  0  0  0  0  0  0  0  0  0  0
   66.2207  -40.2091  -22.5354 C   0  0  0  0  0  0  0  0  0  0  0  0
   67.7361  -40.2129  -22.5421 C   0  0  0  0  0  0  0  0  0  0  0  0
   68.2474  -41.4553  -23.2431 C   0  0  0  0  0  0  0  0  0  0  0  0
   69.7627  -41.4600  -23.2480 C   0  0  0  0  0  0  0  0  0  0  0  0
   70.2740  -42.7024  -23.9490 C   0  0  0  0  0  0  0  0  0  0  0  0
   71.7894  -42.7071  -23.9540 C   0  0  0  0  0  0  0  0  0  0  0  0
   72.3007  -43.9495  -24.6550 C   0  0  0  0  0  0  0  0  0  0  0  0
   73.8161  -43.9543  -24.6599 C   0  0  0  0  0  0  0  0  0  0  0  0
   74.3274  -45.1967  -25.3609 C   0  0  0  0  0  0  0  0  0  0  0  0
   75.8427  -45.2024  -25.3641 C   0  0  0  0  0  0  0  0  0  0  0  0
   76.3541  -46.4448  -26.0651 C   0  0  0  0  0  0  0  0  0  0  0  0
   77.8699  -46.4504  -26.0682 C   0  0  0  0  0  0  0  0  0  0  0  0
   78.3823  -47.6918  -26.7710 C   0  0  0  0  0  0  0  0  0  0  0  0
   79.8999  -47.6997  -26.7777 C   0  0  0  0  0  0  0  0  0  0  0  0
   80.4071  -48.9395  -27.4795 C   0  0  0  0  0  0  0  0  0  0  0  0
    0.6151  -10.4542    0.6128 H   0  0  0  0  0  0  0  0  0  0  0  0
    0.6135   -9.5853   -0.9368 H   0  0  0  0  0  0  0  0  0  0  0  0
    0.6093   -8.6778    0.5917 H   0  0  0  0  0  0  0  0  0  0  0  0
    2.8741  -10.4777   -0.3980 H   0  0  0  0  0  0  0  0  0  0  0  0
    2.8699   -9.5726    1.1264 H   0  0  0  0  0  0  0  0  0  0  0  0
    2.6510   -7.4372   -0.1435 H   0  0  0  0  0  0  0  0  0  0  0  0
    2.6579   -8.3428   -1.6668 H   0  0  0  0  0  0  0  0  0  0  0  0
    4.9159   -9.2431   -1.1228 H   0  0  0  0  0  0  0  0  0  0  0  0
    4.9098   -8.3371    0.4020 H   0  0  0  0  0  0  0  0  0  0  0  0
    4.6926   -6.2058   -0.8583 H   0  0  0  0  0  0  0  0  0  0  0  0
    4.6927   -7.1070   -2.3916 H   0  0  0  0  0  0  0  0  0  0  0  0
    6.8725   -7.9505   -1.8285 H   0  0  0  0  0  0  0  0  0  0  0  0
    6.6040   -5.1472   -1.5467 H   0  0  0  0  0  0  0  0  0  0  0  0
    8.7609   -6.7915   -2.5063 H   0  0  0  0  0  0  0  0  0  0  0  0
    8.5914   -3.9617   -2.2488 H   0  0  0  0  0  0  0  0  0  0  0  0
   10.6566   -4.8191   -1.7508 H   0  0  0  0  0  0  0  0  0  0  0  0
   10.4745   -5.9929   -4.3289 H   0  0  0  0  0  0  0  0  0  0  0  0
   12.5467   -5.9917   -2.3964 H   0  0  0  0  0  0  0  0  0  0  0  0
   12.3044   -7.1387   -4.9616 H   0  0  0  0  0  0  0  0  0  0  0  0
   14.4509   -7.1782   -3.0465 H   0  0  0  0  0  0  0  0  0  0  0  0
   14.2933   -8.3566   -5.6284 H   0  0  0  0  0  0  0  0  0  0  0  0
   16.3373   -8.3295   -3.6919 H   0  0  0  0  0  0  0  0  0  0  0  0
   16.1400   -9.5240   -6.2626 H   0  0  0  0  0  0  0  0  0  0  0  0
   18.1877   -9.4632   -4.3190 H   0  0  0  0  0  0  0  0  0  0  0  0
   17.9802  -10.6591   -6.9003 H   0  0  0  0  0  0  0  0  0  0  0  0
   20.1393  -10.6915   -4.9948 H   0  0  0  0  0  0  0  0  0  0  0  0
   19.9441  -11.8713   -7.5703 H   0  0  0  0  0  0  0  0  0  0  0  0
   22.0208  -11.8487   -5.6402 H   0  0  0  0  0  0  0  0  0  0  0  0
   21.8125  -13.0074   -8.2088 H   0  0  0  0  0  0  0  0  0  0  0  0
   23.8852  -13.0194   -6.2805 H   0  0  0  0  0  0  0  0  0  0  0  0
   23.7139  -14.1883   -8.8608 H   0  0  0  0  0  0  0  0  0  0  0  0
   25.7998  -14.1990   -6.9403 H   0  0  0  0  0  0  0  0  0  0  0  0
   25.6256  -15.3661   -9.5182 H   0  0  0  0  0  0  0  0  0  0  0  0
   27.6903  -15.3564   -7.5894 H   0  0  0  0  0  0  0  0  0  0  0  0
   27.4914  -16.5273  -10.1632 H   0  0  0  0  0  0  0  0  0  0  0  0
   29.5771  -16.5195   -8.2283 H   0  0  0  0  0  0  0  0  0  0  0  0
   29.3695  -17.7448  -10.9082 H   0  0  0  0  0  0  0  0  0  0  0  0
   29.3591  -18.6252   -9.3618 H   0  0  0  0  0  0  0  0  0  0  0  0
   31.6240  -17.7157   -8.8426 H   0  0  0  0  0  0  0  0  0  0  0  0
   31.6288  -16.8467  -10.3886 H   0  0  0  0  0  0  0  0  0  0  0  0
   31.3950  -19.0107  -11.6034 H   0  0  0  0  0  0  0  0  0  0  0  0
   31.3927  -19.8777  -10.0574 H   0  0  0  0  0  0  0  0  0  0  0  0
   33.6538  -18.9671   -9.5430 H   0  0  0  0  0  0  0  0  0  0  0  0
   33.6562  -18.0996  -11.0890 H   0  0  0  0  0  0  0  0  0  0  0  0
   33.4214  -20.2634  -12.3027 H   0  0  0  0  0  0  0  0  0  0  0  0
   33.4214  -21.1301  -10.7562 H   0  0  0  0  0  0  0  0  0  0  0  0
   35.6821  -20.2181  -10.2442 H   0  0  0  0  0  0  0  0  0  0  0  0
   35.6821  -19.3492  -11.7894 H   0  0  0  0  0  0  0  0  0  0  0  0
   35.4494  -21.5104  -13.0057 H   0  0  0  0  0  0  0  0  0  0  0  0
   35.4470  -22.3801  -11.4608 H   0  0  0  0  0  0  0  0  0  0  0  0
   37.7076  -21.4675  -10.9444 H   0  0  0  0  0  0  0  0  0  0  0  0
   37.7099  -20.6000  -12.4905 H   0  0  0  0  0  0  0  0  0  0  0  0
   37.4749  -22.7637  -13.7041 H   0  0  0  0  0  0  0  0  0  0  0  0
   37.4749  -23.6305  -12.1576 H   0  0  0  0  0  0  0  0  0  0  0  0
   39.7354  -22.7183  -11.6455 H   0  0  0  0  0  0  0  0  0  0  0  0
   39.7354  -21.8494  -13.1908 H   0  0  0  0  0  0  0  0  0  0  0  0
   39.5015  -24.0113  -14.4066 H   0  0  0  0  0  0  0  0  0  0  0  0
   39.5015  -24.8803  -12.8613 H   0  0  0  0  0  0  0  0  0  0  0  0
   41.7621  -23.9674  -12.3480 H   0  0  0  0  0  0  0  0  0  0  0  0
   41.7621  -23.0985  -13.8932 H   0  0  0  0  0  0  0  0  0  0  0  0
   41.5282  -25.2604  -15.1090 H   0  0  0  0  0  0  0  0  0  0  0  0
   41.5282  -26.1294  -13.5637 H   0  0  0  0  0  0  0  0  0  0  0  0
   43.7888  -25.2166  -13.0504 H   0  0  0  0  0  0  0  0  0  0  0  0
   43.7888  -24.3476  -14.5957 H   0  0  0  0  0  0  0  0  0  0  0  0
   43.5549  -26.5095  -15.8114 H   0  0  0  0  0  0  0  0  0  0  0  0
   43.5549  -27.3785  -14.2662 H   0  0  0  0  0  0  0  0  0  0  0  0
   45.8154  -26.4657  -13.7528 H   0  0  0  0  0  0  0  0  0  0  0  0
   45.8154  -25.5967  -15.2981 H   0  0  0  0  0  0  0  0  0  0  0  0
   45.5815  -27.7587  -16.5139 H   0  0  0  0  0  0  0  0  0  0  0  0
   45.5815  -28.6276  -14.9686 H   0  0  0  0  0  0  0  0  0  0  0  0
   47.8421  -27.7148  -14.4553 H   0  0  0  0  0  0  0  0  0  0  0  0
   47.8421  -26.8458  -16.0005 H   0  0  0  0  0  0  0  0  0  0  0  0
   47.6094  -29.0070  -17.2168 H   0  0  0  0  0  0  0  0  0  0  0  0
   47.6070  -29.8768  -15.6719 H   0  0  0  0  0  0  0  0  0  0  0  0
   49.8676  -28.9656  -15.1555 H   0  0  0  0  0  0  0  0  0  0  0  0
   49.8699  -28.0959  -16.7004 H   0  0  0  0  0  0  0  0  0  0  0  0
   49.6348  -30.2579  -17.9170 H   0  0  0  0  0  0  0  0  0  0  0  0
   49.6348  -31.1269  -16.3717 H   0  0  0  0  0  0  0  0  0  0  0  0
   51.8954  -30.2155  -15.8583 H   0  0  0  0  0  0  0  0  0  0  0  0
   51.8954  -29.3443  -17.4024 H   0  0  0  0  0  0  0  0  0  0  0  0
   51.6627  -31.5038  -18.6217 H   0  0  0  0  0  0  0  0  0  0  0  0
   51.6603  -32.3757  -17.0780 H   0  0  0  0  0  0  0  0  0  0  0  0
   53.9209  -31.4668  -16.5603 H   0  0  0  0  0  0  0  0  0  0  0  0
   53.9232  -30.5927  -18.1027 H   0  0  0  0  0  0  0  0  0  0  0  0
   53.6882  -32.7512  -19.3254 H   0  0  0  0  0  0  0  0  0  0  0  0
   53.6881  -33.6245  -17.7826 H   0  0  0  0  0  0  0  0  0  0  0  0
   55.9487  -32.7117  -17.2667 H   0  0  0  0  0  0  0  0  0  0  0  0
   55.9487  -31.8405  -18.8108 H   0  0  0  0  0  0  0  0  0  0  0  0
   55.7137  -34.0015  -20.0292 H   0  0  0  0  0  0  0  0  0  0  0  0
   55.7160  -34.8719  -18.4847 H   0  0  0  0  0  0  0  0  0  0  0  0
   57.9766  -33.9581  -17.9731 H   0  0  0  0  0  0  0  0  0  0  0  0
   57.9742  -33.0877  -19.5176 H   0  0  0  0  0  0  0  0  0  0  0  0
   57.7391  -35.2494  -20.7347 H   0  0  0  0  0  0  0  0  0  0  0  0
   57.7438  -36.1191  -19.1898 H   0  0  0  0  0  0  0  0  0  0  0  0
   60.0044  -35.2035  -18.6812 H   0  0  0  0  0  0  0  0  0  0  0  0
   59.9997  -34.3338  -20.2261 H   0  0  0  0  0  0  0  0  0  0  0  0
   59.7658  -36.4955  -21.4423 H   0  0  0  0  0  0  0  0  0  0  0  0
   59.7705  -37.3652  -19.8975 H   0  0  0  0  0  0  0  0  0  0  0  0
   62.0310  -36.4496  -19.3889 H   0  0  0  0  0  0  0  0  0  0  0  0
   62.0263  -35.5799  -20.9338 H   0  0  0  0  0  0  0  0  0  0  0  0
   61.7925  -37.7417  -22.1500 H   0  0  0  0  0  0  0  0  0  0  0  0
   61.7972  -38.6114  -20.6052 H   0  0  0  0  0  0  0  0  0  0  0  0
   64.0577  -37.6958  -20.0966 H   0  0  0  0  0  0  0  0  0  0  0  0
   64.0530  -36.8261  -21.6415 H   0  0  0  0  0  0  0  0  0  0  0  0
   63.8191  -38.9878  -22.8577 H   0  0  0  0  0  0  0  0  0  0  0  0
   63.8238  -39.8575  -21.3129 H   0  0  0  0  0  0  0  0  0  0  0  0
   66.0844  -38.9419  -20.8043 H   0  0  0  0  0  0  0  0  0  0  0  0
   66.0797  -38.0722  -22.3492 H   0  0  0  0  0  0  0  0  0  0  0  0
   65.8458  -40.2339  -23.5654 H   0  0  0  0  0  0  0  0  0  0  0  0
   65.8505  -41.1036  -22.0206 H   0  0  0  0  0  0  0  0  0  0  0  0
   68.1110  -40.1881  -21.5120 H   0  0  0  0  0  0  0  0  0  0  0  0
   68.1063  -39.3184  -23.0569 H   0  0  0  0  0  0  0  0  0  0  0  0
   67.8736  -41.4794  -24.2736 H   0  0  0  0  0  0  0  0  0  0  0  0
   67.8760  -42.3498  -22.7291 H   0  0  0  0  0  0  0  0  0  0  0  0
   70.1365  -41.4359  -22.2175 H   0  0  0  0  0  0  0  0  0  0  0  0
   70.1342  -40.5655  -23.7620 H   0  0  0  0  0  0  0  0  0  0  0  0
   69.9003  -42.7265  -24.9795 H   0  0  0  0  0  0  0  0  0  0  0  0
   69.9026  -43.5969  -23.4351 H   0  0  0  0  0  0  0  0  0  0  0  0
   72.1632  -42.6831  -22.9235 H   0  0  0  0  0  0  0  0  0  0  0  0
   72.1608  -41.8126  -24.4679 H   0  0  0  0  0  0  0  0  0  0  0  0
   71.9269  -43.9736  -25.6855 H   0  0  0  0  0  0  0  0  0  0  0  0
   71.9293  -44.8440  -24.1410 H   0  0  0  0  0  0  0  0  0  0  0  0
   74.1898  -43.9302  -23.6294 H   0  0  0  0  0  0  0  0  0  0  0  0
   74.1875  -43.0598  -25.1739 H   0  0  0  0  0  0  0  0  0  0  0  0
   73.9548  -45.2200  -26.3918 H   0  0  0  0  0  0  0  0  0  0  0  0
   73.9548  -46.0912  -24.8478 H   0  0  0  0  0  0  0  0  0  0  0  0
   76.2153  -45.1790  -24.3331 H   0  0  0  0  0  0  0  0  0  0  0  0
   76.2153  -44.3079  -25.8772 H   0  0  0  0  0  0  0  0  0  0  0  0
   75.9815  -46.4681  -27.0960 H   0  0  0  0  0  0  0  0  0  0  0  0
   75.9815  -47.3393  -25.5520 H   0  0  0  0  0  0  0  0  0  0  0  0
   78.2421  -46.4285  -25.0372 H   0  0  0  0  0  0  0  0  0  0  0  0
   78.2421  -45.5551  -26.5801 H   0  0  0  0  0  0  0  0  0  0  0  0
   78.0071  -47.7143  -27.8012 H   0  0  0  0  0  0  0  0  0  0  0  0
   78.0094  -48.5867  -26.2583 H   0  0  0  0  0  0  0  0  0  0  0  0
   80.2752  -47.6794  -25.7486 H   0  0  0  0  0  0  0  0  0  0  0  0
   80.2729  -46.8069  -27.2917 H   0  0  0  0  0  0  0  0  0  0  0  0
   80.0524  -49.8389  -26.9665 H   0  0  0  0  0  0  0  0  0  0  0  0
   81.4992  -48.9478  -27.4859 H   0  0  0  0  0  0  0  0  0  0  0  0
   80.0501  -48.9640  -28.5139 H   0  0  0  0  0  0  0  0  0  0  0  0
  1  2  1  0  0  0  0
  1 82  1  0  0  0  0
  1 83  1  0  0  0  0
  1 84  1  0  0  0  0
  2  3  1  0  0  0  0
  2 85  1  0  0  0  0
  2 86  1  0  0  0  0
  3  4  1  0  0  0  0
  3 87  1  0  0  0  0
  3 88  1  0  0  0  0
  4  5  1  0  0  0  0
  4 89  1  0  0  0  0
  4 90  1  0  0  0  0
  5  6  1  0  0  0  0
  5 91  1  0  0  0  0
  5 92  1  0  0  0  0
  6  7  1  0  0  0  0
  6 93  1  0  0  0  0
  7  8  1  0  0  0  0
  7 94  1  0  0  0  0
  8  9  1  0  0  0  0
  8 95  1  0  0  0  0
  9 10  1  0  0  0  0
  9 96  1  0  0  0  0
 10 11  1  0  0  0  0
 10 97  1  0  0  0  0
 11 12  1  0  0  0  0
 11 98  1  0  0  0  0
 12 13  1  0  0  0  0
 12 99  1  0  0  0  0
 13 14  1  0  0  0  0
 13100  1  0  0  0  0
 14 15  1  0  0  0  0
 14101  1  0  0  0  0
 15 16  1  0  0  0  0
 15102  1  0  0  0  0
 16 17  1  0  0  0  0
 16103  1  0  0  0  0
 17 18  1  0  0  0  0
 17104  1  0  0  0  0
 18 19  1  0  0  0  0
 18105  1  0  0  0  0
 19 20  1  0  0  0  0
 19106  1  0  0  0  0
 20 21  1  0  0  0  0
 20107  1  0  0  0  0
 21 22  1  0  0  0  0
 21108  1  0  0  0  0
 22 23  1  0  0  0  0
 22109  1  0  0  0  0
 23 24  1  0  0  0  0
 23110  1  0  0  0  0
 24 25  1  0  0  0  0
 24111  1  0  0  0  0
 25 26  1  0  0  0  0
 25112  1  0  0  0  0
 26 27  1  0  0  0  0
 26113  1  0  0  0  0
 27 28  1  0  0  0  0
 27114  1  0  0  0  0
 28 29  1  0  0  0  0
 28115  1  0  0  0  0
 29 30  1  0  0  0  0
 29116  1  0  0  0  0
 30 31  1  0  0  0  0
 30117  1  0  0  0  0
 31 32  1  0  0  0  0
 31118  1  0  0  0  0
 31119  1  0  0  0  0
 32 33  1  0  0  0  0
 32120  1  0  0  0  0
 32121  1  0  0  0  0
 33 34  1  0  0  0  0
 33122  1  0  0  0  0
 33123  1  0  0  0  0
 34 35  1  0  0  0  0
 34124  1  0  0  0  0
 34125  1  0  0  0  0
 35 36  1  0  0  0  0
 35126  1  0  0  0  0
 35127  1  0  0  0  0
 36 37  1  0  0  0  0
 36128  1  0  0  0  0
 36129  1  0  0  0  0
 37 38  1  0  0  0  0
 37130  1  0  0  0  0
 37131  1  0  0  0  0
 38 39  1  0  0  0  0
 38132  1  0  0  0  0
 38133  1  0  0  0  0
 39 40  1  0  0  0  0
 39134  1  0  0  0  0
 39135  1  0  0  0  0
 40 41  1  0  0  0  0
 40136  1  0  0  0  0
 40137  1  0  0  0  0
 41 42  1  0  0  0  0
 41138  1  0  0  0  0
 41139  1  0  0  0  0
 42 43  1  0  0  0  0
 42140  1  0  0  0  0
 42141  1  0  0  0  0
 43 44  1  0  0  0  0
 43142  1  0  0  0  0
 43143  1  0  0  0  0
 44 45  1  0  0  0  0
 44144  1  0  0  0  0
 44145  1  0  0  0  0
 45 46  1  0  0  0  0
 45146  1  0  0  0  0
 45147  1  0  0  0  0
 46 47  1  0  0  0  0
 46148  1  0  0  0  0
 46149  1  0  0  0  0
 47 48  1  0  0  0  0
 47150  1  0  0  0  0
 47151  1  0  0  0  0
 48 49  1  0  0  0  0
 48152  1  0  0  0  0
 48153  1  0  0  0  0
 49 50  1  0  0  0  0
 49154  1  0  0  0  0
 49155  1  0  0  0  0
 50 51  1  0  0  0  0
 50156  1  0  0  0  0
 50157  1  0  0  0  0
 51 52  1  0  0  0  0
 51158  1  0  0  0  0
 51159  1  0  0  0  0
 52 53  1  0  0  0  0
 52160  1  0  0  0  0
 52161  1  0  0  0  0
 53 54  1  0  0  0  0
 53162  1  0  0  0  0
 53163  1  0  0  0  0
 54 55  1  0  0  0  0
 54164  1  0  0  0  0
 54165  1  0  0  0  0
 55 56  1  0  0  0  0
 55166  1  0  0  0  0
 55167  1  0  0  0  0
 56 57  1  0  0  0  0
 56168  1  0  0  0  0
 56169  1  0  0  0  0
 57 58  1  0  0  0  0
 57170  1  0  0  0  0
 57171  1  0  0  0  0
 58 59  1  0  0  0  0
 58172  1  0  0  0  0
 58173  1  0  0  0  0
 59 60  1  0  0  0  0
 59174  1  0  0  0  0
 59175  1  0  0  0  0
 60 61  1  0  0  0  0
 60176  1  0  0  0  0
 60177  1  0  0  0  0
 61 62  1  0  0  0  0
 61178  1  0  0  0  0
 61179  1  0  0  0  0
 62 63  1  0  0  0  0
 62180  1  0  0  0  0
 62181  1  0  0  0  0
 63 64  1  0  0  0  0
 63182  1  0  0  0  0
 63183  1  0  0  0  0
 64 65  1  0  0  0  0
 64184  1  0  0  0  0
 64185  1  0  0  0  0
 65 66  1  0  0  0  0
 65186  1  0  0  0  0
 65187  1  0  0  0  0
 66 67  1  0  0  0  0
 66188  1  0  0  0  0
 66189  1  0  0  0  0
 67 68  1  0  0  0  0
 67190  1  0  0  0  0
 67191  1  0  0  0  0
 68 69  1  0  0  0  0
 68192  1  0  0  0  0
 68193  1  0  0  0  0
 69 70  1  0  0  0  0
 69194  1  0  0  0  0
 69195  1  0  0  0  0
 70 71  1  0  0  0  0
 70196  1  0  0  0  0
 70197  1  0  0  0  0
 71 72  1  0  0  0  0
 71198  1  0  0  0  0
 71199  1  0  0  0  0
 72 73  1  0  0  0  0
 72200  1  0  0  0  0
 72201  1  0  0  0  0
 73 74  1  0  0  0  0
 73202  1  0  0  0  0
 73203  1  0  0  0  0
 74 75  1  0  0  0  0
 74204  1  0  0  0  0
 74205  1  0  0  0  0
 75 76  1  0  0  0  0
 75206  1  0  0  0  0
 75207  1  0  0  0  0
 76 77  1  0  0  0  0
 76208  1  0  0  0  0
 76209  1  0  0  0  0
 77 78  1  0  0  0  0
 77210  1  0  0  0  0
 77211  1  0  0  0  0
 78 79  1  0  0  0  0
 78212  1  0  0  0  0
 78213  1  0  0  0  0
 79 80  1  0  0  0  0
 79214  1  0  0  0  0
 79215  1  0  0  0  0
 80 81  1  0  0  0  0
 80216  1  0  0  0  0
 80217  1  0  0  0  0
 81218  1  0  0  0  0
 81219  1  0  0  0  0
 81220  1  0  0  0  0
M  END
$$$$
