
 OpenBabel04232216453D

 59 60  0  0  0  0  0  0  0  0999 V2000
    1.7347   -0.3828    0.8630 C   0  0  0  0  0  0  0  0  0  0  0  0
    3.2059   -0.4509    1.3434 C   0  0  0  0  0  0  0  0  0  0  0  0
    3.9566    0.4569    0.3716 C   0  0  0  0  0  0  0  0  0  0  0  0
    5.0174    1.3044    0.3730 C   0  0  0  0  0  0  0  0  0  0  0  0
    5.8266    1.5319    1.6114 C   0  0  0  0  0  0  0  0  0  0  0  0
    5.5861    1.9629   -0.8824 C   0  0  0  0  0  0  0  0  0  0  0  0
    4.7526    2.6036   -1.9993 C   0  0  0  0  0  0  0  0  0  0  0  0
    3.8654    3.8397   -1.7939 C   0  0  0  0  0  0  0  0  0  0  0  0
    4.5724    5.1316   -1.3683 C   0  0  0  0  0  0  0  0  0  0  0  0
    3.5516    6.2784   -1.2546 C   0  0  0  0  0  0  0  0  0  0  0  0
    4.1594    7.5611   -0.7100 C   0  0  0  0  0  0  0  0  0  0  0  0
    6.8245    1.6300   -1.2661 C   0  0  0  0  0  0  0  0  0  0  0  0
    7.8830    1.5514   -2.1550 C   0  0  0  0  0  0  0  0  0  0  0  0
    8.9499    2.5292   -2.4779 C   0  0  0  0  0  0  0  0  0  0  0  0
    7.9216    0.7644   -1.0556 C   0  0  0  0  0  0  0  0  0  0  0  0
    7.6337   -0.6646   -0.9768 C   0  0  0  0  0  0  0  0  0  0  0  0
    6.6747   -1.1651   -2.0441 C   0  0  0  0  0  0  0  0  0  0  0  0
    7.9416   -1.2647    0.2034 C   0  0  0  0  0  0  0  0  0  0  0  0
    6.9981   -2.0818    0.9631 C   0  0  0  0  0  0  0  0  0  0  0  0
    5.6257   -2.2126    0.4736 C   0  0  0  0  0  0  0  0  0  0  0  0
    7.0943   -2.2080    2.3086 C   0  0  0  0  0  0  0  0  0  0  0  0
    5.9313   -2.3009    3.2120 C   0  0  0  0  0  0  0  0  0  0  0  0
    4.6276   -1.9112    3.2038 C   0  0  0  0  0  0  0  0  0  0  0  0
    3.4864   -1.3837    2.3455 C   0  0  0  0  0  0  0  0  0  0  0  0
    2.2913   -2.3197    2.7126 C   0  0  0  0  0  0  0  0  0  0  0  0
    1.5502    0.3900    0.1086 H   0  0  0  0  0  0  0  0  0  0  0  0
    1.0687   -0.1412    1.6975 H   0  0  0  0  0  0  0  0  0  0  0  0
    1.4266   -1.3280    0.3995 H   0  0  0  0  0  0  0  0  0  0  0  0
    3.5340    0.3302   -0.6383 H   0  0  0  0  0  0  0  0  0  0  0  0
    5.2774    1.2564    2.5159 H   0  0  0  0  0  0  0  0  0  0  0  0
    6.1165    2.5835    1.7047 H   0  0  0  0  0  0  0  0  0  0  0  0
    6.7405    0.9313    1.5894 H   0  0  0  0  0  0  0  0  0  0  0  0
    4.1091    1.8185   -2.4234 H   0  0  0  0  0  0  0  0  0  0  0  0
    5.4238    2.8692   -2.8326 H   0  0  0  0  0  0  0  0  0  0  0  0
    3.0520    3.6020   -1.1021 H   0  0  0  0  0  0  0  0  0  0  0  0
    3.3843    4.0453   -2.7644 H   0  0  0  0  0  0  0  0  0  0  0  0
    5.3430    5.4003   -2.1036 H   0  0  0  0  0  0  0  0  0  0  0  0
    5.0719    4.9855   -0.4063 H   0  0  0  0  0  0  0  0  0  0  0  0
    2.7312    5.9747   -0.5936 H   0  0  0  0  0  0  0  0  0  0  0  0
    3.1068    6.4867   -2.2361 H   0  0  0  0  0  0  0  0  0  0  0  0
    4.6112    7.3960    0.2728 H   0  0  0  0  0  0  0  0  0  0  0  0
    3.3846    8.3283   -0.5971 H   0  0  0  0  0  0  0  0  0  0  0  0
    4.9255    7.9548   -1.3846 H   0  0  0  0  0  0  0  0  0  0  0  0
    8.5869    3.3015   -3.1593 H   0  0  0  0  0  0  0  0  0  0  0  0
    9.7672    2.0044   -2.9890 H   0  0  0  0  0  0  0  0  0  0  0  0
    9.3676    3.0078   -1.5872 H   0  0  0  0  0  0  0  0  0  0  0  0
    7.0119   -0.9098   -3.0515 H   0  0  0  0  0  0  0  0  0  0  0  0
    5.6788   -0.7089   -1.9340 H   0  0  0  0  0  0  0  0  0  0  0  0
    6.5716   -2.2543   -2.0324 H   0  0  0  0  0  0  0  0  0  0  0  0
    8.7185   -0.8047    0.8208 H   0  0  0  0  0  0  0  0  0  0  0  0
    5.3200   -2.0942   -0.5525 H   0  0  0  0  0  0  0  0  0  0  0  0
    5.2493   -1.3121    0.9031 H   0  0  0  0  0  0  0  0  0  0  0  0
    5.1174   -3.1086    0.8258 H   0  0  0  0  0  0  0  0  0  0  0  0
    8.0574   -2.1333    2.8089 H   0  0  0  0  0  0  0  0  0  0  0  0
    6.2518   -2.8012    4.1374 H   0  0  0  0  0  0  0  0  0  0  0  0
    4.1898   -2.1912    4.1751 H   0  0  0  0  0  0  0  0  0  0  0  0
    2.5405   -3.1350    3.4041 H   0  0  0  0  0  0  0  0  0  0  0  0
    1.9258   -2.8427    1.8191 H   0  0  0  0  0  0  0  0  0  0  0  0
    1.4755   -1.7569    3.1753 H   0  0  0  0  0  0  0  0  0  0  0  0
  1  2  1  0  0  0  0
  1 26  1  0  0  0  0
  1 27  1  0  0  0  0
  1 28  1  0  0  0  0
  2  3  1  0  0  0  0
  2 24  2  0  0  0  0
  3  4  2  0  0  0  0
  3 29  1  0  0  0  0
  4  5  1  0  0  0  0
  4  6  1  0  0  0  0
  5 30  1  0  0  0  0
  5 31  1  0  0  0  0
  5 32  1  0  0  0  0
  6  7  1  0  0  0  0
  6 12  2  0  0  0  0
  7  8  1  0  0  0  0
  7 33  1  0  0  0  0
  7 34  1  0  0  0  0
  8  9  1  0  0  0  0
  8 35  1  0  0  0  0
  8 36  1  0  0  0  0
  9 10  1  0  0  0  0
  9 37  1  0  0  0  0
  9 38  1  0  0  0  0
 10 11  1  0  0  0  0
 10 39  1  0  0  0  0
 10 40  1  0  0  0  0
 11 41  1  0  0  0  0
 11 42  1  0  0  0  0
 11 43  1  0  0  0  0
 12 13  1  0  0  0  0
 12 15  1  0  0  0  0
 13 14  1  0  0  0  0
 13 15  2  0  0  0  0
 14 44  1  0  0  0  0
 14 45  1  0  0  0  0
 14 46  1  0  0  0  0
 15 16  1  0  0  0  0
 16 17  1  0  0  0  0
 16 18  2  0  0  0  0
 17 47  1  0  0  0  0
 17 48  1  0  0  0  0
 17 49  1  0  0  0  0
 18 19  1  0  0  0  0
 18 50  1  0  0  0  0
 19 20  1  0  0  0  0
 19 21  2  0  0  0  0
 20 51  1  0  0  0  0
 20 52  1  0  0  0  0
 20 53  1  0  0  0  0
 21 22  1  0  0  0  0
 21 54  1  0  0  0  0
 22 23  2  0  0  0  0
 22 55  1  0  0  0  0
 23 24  1  0  0  0  0
 23 56  1  0  0  0  0
 24 25  1  0  0  0  0
 25 57  1  0  0  0  0
 25 58  1  0  0  0  0
 25 59  1  0  0  0  0
M  END
$$$$
