
 OpenBabel04232216473D

120120  0  0  1  0  0  0  0  0999 V2000
    1.2659  -36.4561   45.5434 C   0  0  0  0  0  0  0  0  0  0  0  0
    0.5069  -36.5143   46.8700 C   0  0  3  0  0  0  0  0  0  0  0  0
    1.3546  -35.6758   48.1341 C   0  0  0  0  0  3  0  0  0  0  0  0
    1.2735  -37.0009   48.3791 C   0  0  0  0  0  3  0  0  0  0  0  0
    0.7628  -38.0093   47.8467 C   0  0  0  0  0  0  0  0  0  0  0  0
   -0.0404  -38.9179   48.2027 O   0  0  0  0  0  0  0  0  0  0  0  0
   -0.6832  -39.3827   47.0118 O   0  0  0  0  0  0  0  0  0  0  0  0
   -0.2747  -40.7433   46.7247 O   0  0  0  0  0  0  0  0  0  0  0  0
   -0.8266  -41.1895   45.4677 O   0  0  0  0  0  0  0  0  0  0  0  0
   -0.1462  -40.5560   44.3631 O   0  0  0  0  0  0  0  0  0  0  0  0
   -1.0788  -40.3214   43.2889 O   0  0  0  0  0  0  0  0  0  0  0  0
   -0.4356  -39.5836   42.2384 O   0  0  0  0  0  0  0  0  0  0  0  0
   -0.7951  -40.1228   40.9576 O   0  0  0  0  0  0  0  0  0  0  0  0
   -0.5697  -39.1259   39.9504 O   0  0  0  0  0  0  0  0  0  0  0  0
   -1.2223  -39.5135   38.7425 O   0  0  0  0  0  0  0  0  0  0  0  0
   -0.6149  -38.8597   37.6239 O   0  0  0  0  0  0  0  0  0  0  0  0
   -1.4555  -39.0626   36.4886 O   0  0  0  0  0  0  0  0  0  0  0  0
   -1.0108  -38.2761   35.3874 O   0  0  0  0  0  0  0  0  0  0  0  0
   -1.3270  -38.9782   34.1826 O   0  0  0  0  0  0  0  0  0  0  0  0
   -0.8661  -38.2340   33.0631 O   0  0  0  0  0  0  0  0  0  0  0  0
   -1.9088  -38.1291   32.0903 O   0  0  0  0  0  0  0  0  0  0  0  0
   -1.3907  -37.4133   30.9785 O   0  0  0  0  0  0  0  0  0  0  0  0
   -1.6141  -38.1168   29.7564 O   0  0  0  0  0  0  0  0  0  0  0  0
   -1.4526  -37.1580   28.7149 O   0  0  0  0  0  0  0  0  0  0  0  0
   -2.2548  -37.4697   27.5849 O   0  0  0  0  0  0  0  0  0  0  0  0
   -1.5193  -37.0726   26.4261 O   0  0  0  0  0  0  0  0  0  0  0  0
   -2.2985  -37.2889   25.2586 O   0  0  0  0  0  0  0  0  0  0  0  0
   -1.8699  -36.3913   24.2310 O   0  0  0  0  0  0  0  0  0  0  0  0
   -2.5279  -36.7479   23.0169 O   0  0  0  0  0  0  0  0  0  0  0  0
   -2.1937  -35.8261   21.9746 O   0  0  0  0  0  0  0  0  0  0  0  0
   -2.4460  -36.4608   20.7115 O   0  0  0  0  0  0  0  0  0  0  0  0
   -1.8192  -35.7314   19.6482 O   0  0  0  0  0  0  0  0  0  0  0  0
   -2.8190  -35.2892   18.7096 O   0  0  0  0  0  0  0  0  0  0  0  0
   -2.1913  -34.5531   17.6413 O   0  0  0  0  0  0  0  0  0  0  0  0
   -2.6609  -35.0271   16.3640 O   0  0  0  0  0  0  0  0  0  0  0  0
   -1.9849  -36.2504   15.9831 O   0  0  0  0  0  0  0  0  0  0  0  0
   -2.6126  -36.7744   14.7950 N   0  0  0  0  0  0  0  0  0  0  0  0
   -2.6963  -38.2167   14.7696 N   0  0  0  0  0  0  0  0  0  0  0  0
   -3.2877  -38.8015   15.9229 N   0  0  0  0  0  0  0  0  0  0  0  0
   -4.6662  -38.4308   16.0044 N   0  0  0  0  0  0  0  0  0  0  0  0
   -5.3116  -38.7807   14.7341 N   0  0  0  0  0  0  0  0  0  0  0  0
   -5.1407  -40.1816   14.4176 N   0  0  0  0  0  0  0  0  0  0  0  0
   -5.8301  -40.9795   15.3825 N   0  0  0  0  0  0  0  0  0  0  0  0
   -7.2443  -40.7138   15.3491 N   0  0  0  0  0  0  0  0  0  0  0  0
   -7.7717  -40.9294   14.0341 N   0  0  0  0  0  0  0  0  0  0  0  0
   -7.5702  -42.3206   13.7168 N   0  0  0  0  0  0  0  0  0  0  0  0
   -8.2097  -43.1262   14.7256 N   0  0  0  0  0  0  0  0  0  0  0  0
   -9.5986  -42.7874   14.8527 N   0  0  0  0  0  0  0  0  0  0  0  0
  -10.3804  -43.2110   13.7389 N   0  0  0  0  0  0  0  0  0  0  0  0
  -10.2990  -44.6122   13.5083 N   0  0  0  0  0  0  0  0  0  0  0  0
  -11.0420  -45.3209   14.4708 N   0  0  0  0  0  0  0  0  0  0  0  0
  -12.3854  -44.8678   14.3877 N   0  0  0  0  0  0  0  0  0  0  0  0
  -12.8566  -45.1423   13.0630 N   0  0  0  0  0  0  0  0  0  0  0  0
  -12.5313  -46.5181   12.7777 N   0  0  0  0  0  0  0  0  0  0  0  0
  -13.1715  -47.3164   13.8056 N   0  0  0  0  0  0  0  0  0  0  0  0
  -14.5356  -46.8171   13.9316 N   0  0  0  0  0  0  0  0  0  0  0  0
  -15.2230  -47.1045   12.7022 N   0  0  0  0  0  0  0  0  0  0  0  0
  -15.1618  -48.5052   12.4394 N   0  0  0  0  0  0  0  0  0  0  0  0
  -15.8105  -49.2407   13.4627 N   0  0  0  0  0  0  0  0  0  0  0  0
  -17.1996  -48.9045   13.5256 N   0  0  0  0  0  0  0  0  0  0  0  0
  -17.9097  -49.3513   12.3561 N   0  0  0  0  0  0  0  0  0  0  0  0
  -17.6837  -50.7425   12.1781 N   0  0  0  0  0  0  0  0  0  0  0  0
  -18.2308  -51.4068   13.3164 N   0  0  0  0  0  0  0  0  0  0  0  0
  -19.6346  -51.0131   13.4097 N   0  0  0  0  0  0  0  0  0  0  0  0
  -20.3181  -51.2709   12.1536 N   0  0  0  0  0  0  0  0  0  0  0  0
  -20.3766  -52.6591   11.8253 N   0  0  0  0  0  0  0  0  0  0  0  0
  -20.9346  -53.4491   12.8561 N   0  0  0  0  0  0  0  0  0  0  0  0
  -22.3022  -53.1284   13.0800 N   0  0  0  0  0  0  0  0  0  0  0  0
  -23.0361  -53.3985   11.8853 N   0  0  0  0  0  0  0  0  0  0  0  0
  -22.9313  -54.8170   11.5810 N   0  0  0  0  0  0  0  0  0  0  0  0
  -23.5455  -55.6003   12.6258 N   0  0  0  0  0  0  0  0  0  0  0  0
  -24.8913  -55.1819   12.8306 N   0  0  0  0  0  0  0  0  0  0  0  0
  -25.7208  -55.6015   11.7195 O   0  0  0  0  0  0  0  0  0  0  0  0
  -26.9518  -54.8470   11.6969 O   0  0  0  0  0  0  0  0  0  0  0  0
  -27.6726  -55.1174   10.4743 O   0  0  0  0  0  0  0  0  0  0  0  0
  -27.1987  -54.2596    9.4072 O   0  0  0  0  0  0  0  0  0  0  0  0
  -27.8976  -54.5645    8.1761 O   0  0  0  0  0  0  0  0  0  0  0  0
  -29.2471  -54.0358    8.2252 O   0  0  0  0  0  0  0  0  0  0  0  0
    1.2508  -35.4358   45.1433 H   0  0  0  0  0  0  0  0  0  0  0  0
    0.7936  -37.1086   44.8019 H   0  0  0  0  0  0  0  0  0  0  0  0
    2.3125  -36.7614   45.6464 H   0  0  0  0  0  0  0  0  0  0  0  0
   -0.5264  -36.1454   46.8424 H   0  0  0  0  0  0  0  0  0  0  0  0
    0.7452  -34.9163   48.6187 H   0  0  0  0  0  0  0  0  0  0  0  0
   -1.9833  -36.4602   14.0648 H   0  0  0  0  0  0  0  0  0  0  0  0
   -1.7596  -38.5989   14.6654 H   0  0  0  0  0  0  0  0  0  0  0  0
   -2.7499  -38.5609   16.7693 H   0  0  0  0  0  0  0  0  0  0  0  0
   -4.6813  -37.4075   16.0825 H   0  0  0  0  0  0  0  0  0  0  0  0
   -4.7526  -38.2930   14.0364 H   0  0  0  0  0  0  0  0  0  0  0  0
   -4.1278  -40.3733   14.4105 H   0  0  0  0  0  0  0  0  0  0  0  0
   -5.4463  -40.7311   16.3082 H   0  0  0  0  0  0  0  0  0  0  0  0
   -7.4368  -39.7524   15.6263 H   0  0  0  0  0  0  0  0  0  0  0  0
   -7.2917  -40.3144   13.3647 H   0  0  0  0  0  0  0  0  0  0  0  0
   -6.5664  -42.4906   13.8413 H   0  0  0  0  0  0  0  0  0  0  0  0
   -7.7868  -42.8896   15.6203 H   0  0  0  0  0  0  0  0  0  0  0  0
   -9.6740  -41.7823   15.0553 H   0  0  0  0  0  0  0  0  0  0  0  0
  -10.2471  -42.7346   12.8557 H   0  0  0  0  0  0  0  0  0  0  0  0
   -9.3264  -44.9231   13.4026 H   0  0  0  0  0  0  0  0  0  0  0  0
  -10.7113  -45.2248   15.4228 H   0  0  0  0  0  0  0  0  0  0  0  0
  -12.4372  -43.8671   14.6079 H   0  0  0  0  0  0  0  0  0  0  0  0
  -12.3756  -44.5793   12.3677 H   0  0  0  0  0  0  0  0  0  0  0  0
  -11.5085  -46.6250   12.8059 H   0  0  0  0  0  0  0  0  0  0  0  0
  -12.7292  -47.1422   14.7056 H   0  0  0  0  0  0  0  0  0  0  0  0
  -14.4800  -45.7899   14.0622 H   0  0  0  0  0  0  0  0  0  0  0  0
  -14.8308  -46.5746   11.9131 H   0  0  0  0  0  0  0  0  0  0  0  0
  -14.2182  -48.8881   12.3453 H   0  0  0  0  0  0  0  0  0  0  0  0
  -15.3249  -49.1415   14.3654 H   0  0  0  0  0  0  0  0  0  0  0  0
  -17.3769  -47.9124   13.7305 H   0  0  0  0  0  0  0  0  0  0  0  0
  -17.6504  -48.8704   11.4946 H   0  0  0  0  0  0  0  0  0  0  0  0
  -16.6665  -50.8981   12.0971 H   0  0  0  0  0  0  0  0  0  0  0  0
  -17.7482  -51.0746   14.1597 H   0  0  0  0  0  0  0  0  0  0  0  0
  -19.6723  -49.9944   13.5322 H   0  0  0  0  0  0  0  0  0  0  0  0
  -19.8380  -50.8043   11.3871 H   0  0  0  0  0  0  0  0  0  0  0  0
  -19.4672  -53.0286   11.5779 H   0  0  0  0  0  0  0  0  0  0  0  0
  -20.4153  -53.3633   13.7251 H   0  0  0  0  0  0  0  0  0  0  0  0
  -22.3831  -52.1402   13.3602 H   0  0  0  0  0  0  0  0  0  0  0  0
  -22.6040  -52.8615   11.1204 H   0  0  0  0  0  0  0  0  0  0  0  0
  -21.9262  -55.0385   11.5622 H   0  0  0  0  0  0  0  0  0  0  0  0
  -23.0336  -55.4584   13.5015 H   0  0  0  0  0  0  0  0  0  0  0  0
  -24.9545  -54.1636   12.7354 H   0  0  0  0  0  0  0  0  0  0  0  0
  -29.5014  -54.3323    7.3357 H   0  0  0  0  0  0  0  0  0  0  0  0
  1  2  1  0  0  0  0
  1 79  1  0  0  0  0
  1 80  1  0  0  0  0
  1 81  1  0  0  0  0
  2  3  1  0  0  0  0
  2  5  1  0  0  0  0
  2 82  1  0  0  0  0
  3  4  1  0  0  0  0
  3 83  1  0  0  0  0
  4  5  2  0  0  0  0
  5  6  1  0  0  0  0
  6  7  1  0  0  0  0
  7  8  1  0  0  0  0
  8  9  1  0  0  0  0
  9 10  1  0  0  0  0
 10 11  1  0  0  0  0
 11 12  1  0  0  0  0
 12 13  1  0  0  0  0
 13 14  1  0  0  0  0
 14 15  1  0  0  0  0
 15 16  1  0  0  0  0
 16 17  1  0  0  0  0
 17 18  1  0  0  0  0
 18 19  1  0  0  0  0
 19 20  1  0  0  0  0
 20 21  1  0  0  0  0
 21 22  1  0  0  0  0
 22 23  1  0  0  0  0
 23 24  1  0  0  0  0
 24 25  1  0  0  0  0
 25 26  1  0  0  0  0
 26 27  1  0  0  0  0
 27 28  1  0  0  0  0
 28 29  1  0  0  0  0
 29 30  1  0  0  0  0
 30 31  1  0  0  0  0
 31 32  1  0  0  0  0
 32 33  1  0  0  0  0
 33 34  1  0  0  0  0
 34 35  1  0  0  0  0
 35 36  1  0  0  0  0
 36 37  1  0  0  0  0
 37 38  1  0  0  0  0
 37 84  1  0  0  0  0
 38 39  1  0  0  0  0
 38 85  1  0  0  0  0
 39 40  1  0  0  0  0
 39 86  1  0  0  0  0
 40 41  1  0  0  0  0
 40 87  1  0  0  0  0
 41 42  1  0  0  0  0
 41 88  1  0  0  0  0
 42 43  1  0  0  0  0
 42 89  1  0  0  0  0
 43 44  1  0  0  0  0
 43 90  1  0  0  0  0
 44 45  1  0  0  0  0
 44 91  1  0  0  0  0
 45 46  1  0  0  0  0
 45 92  1  0  0  0  0
 46 47  1  0  0  0  0
 46 93  1  0  0  0  0
 47 48  1  0  0  0  0
 47 94  1  0  0  0  0
 48 49  1  0  0  0  0
 48 95  1  0  0  0  0
 49 50  1  0  0  0  0
 49 96  1  0  0  0  0
 50 51  1  0  0  0  0
 50 97  1  0  0  0  0
 51 52  1  0  0  0  0
 51 98  1  0  0  0  0
 52 53  1  0  0  0  0
 52 99  1  0  0  0  0
 53 54  1  0  0  0  0
 53100  1  0  0  0  0
 54 55  1  0  0  0  0
 54101  1  0  0  0  0
 55 56  1  0  0  0  0
 55102  1  0  0  0  0
 56 57  1  0  0  0  0
 56103  1  0  0  0  0
 57 58  1  0  0  0  0
 57104  1  0  0  0  0
 58 59  1  0  0  0  0
 58105  1  0  0  0  0
 59 60  1  0  0  0  0
 59106  1  0  0  0  0
 60 61  1  0  0  0  0
 60107  1  0  0  0  0
 61 62  1  0  0  0  0
 61108  1  0  0  0  0
 62 63  1  0  0  0  0
 62109  1  0  0  0  0
 63 64  1  0  0  0  0
 63110  1  0  0  0  0
 64 65  1  0  0  0  0
 64111  1  0  0  0  0
 65 66  1  0  0  0  0
 65112  1  0  0  0  0
 66 67  1  0  0  0  0
 66113  1  0  0  0  0
 67 68  1  0  0  0  0
 67114  1  0  0  0  0
 68 69  1  0  0  0  0
 68115  1  0  0  0  0
 69 70  1  0  0  0  0
 69116  1  0  0  0  0
 70 71  1  0  0  0  0
 70117  1  0  0  0  0
 71 72  1  0  0  0  0
 71118  1  0  0  0  0
 72 73  1  0  0  0  0
 72119  1  0  0  0  0
 73 74  1  0  0  0  0
 74 75  1  0  0  0  0
 75 76  1  0  0  0  0
 76 77  1  0  0  0  0
 77 78  1  0  0  0  0
 78120  1  0  0  0  0
M  END
$$$$
