
 OpenBabel04232216493D

 71 71  0  0  0  0  0  0  0  0999 V2000
    4.0153   -0.5318    0.8943 C   0  0  0  0  0  0  0  0  0  0  0  0
    4.9357    0.2358    1.8064 C   0  0  0  0  0  0  0  0  0  0  0  0
    4.3164    1.4739    2.2336 C   0  0  0  0  0  0  0  0  0  0  0  0
    4.1566    2.4664    1.3390 C   0  0  0  0  0  0  0  0  0  0  0  0
    5.0790    3.5552    1.6128 C   0  0  0  0  0  0  0  0  0  0  0  0
    6.3705    3.4747    1.2580 C   0  0  0  0  0  0  0  0  0  0  0  0
    7.0323    2.7487   -0.0106 C   0  0  0  0  0  0  0  0  0  0  0  0
    6.4418    2.1123   -1.3493 C   0  0  0  0  0  0  0  0  0  0  0  0
    6.1753    2.9615   -2.6118 C   0  0  0  0  0  0  0  0  0  0  0  0
    5.6959    2.0565   -3.7889 C   0  0  0  0  0  0  0  0  0  0  0  0
    5.3424    2.8489   -5.0570 C   0  0  0  0  0  0  0  0  0  0  0  0
    4.8533    1.9519   -6.2094 C   0  0  0  0  0  0  0  0  0  0  0  0
    4.4891    2.8031   -7.4323 C   0  0  0  0  0  0  0  0  0  0  0  0
    3.9859    1.9630   -8.6062 C   0  0  0  0  0  0  0  0  0  0  0  0
    3.6312    2.8601   -9.7950 C   0  0  0  0  0  0  0  0  0  0  0  0
    3.1249    2.0507  -10.9766 C   0  0  0  0  0  0  0  0  0  0  0  0
    7.2806    3.8422    2.4035 C   0  0  0  0  0  0  0  0  0  0  0  0
    7.3978    3.2443    3.6115 C   0  0  0  0  0  0  0  0  0  0  0  0
    8.7298    2.9000    4.1320 C   0  0  0  0  0  0  0  0  0  0  0  0
    9.4301    1.8843    3.5590 C   0  0  0  0  0  0  0  0  0  0  0  0
   10.9774    1.9917    3.4452 C   0  0  0  0  0  0  0  0  0  0  0  0
   12.0282    1.1351    4.1708 C   0  0  0  0  0  0  0  0  0  0  0  0
   11.9631   -0.3864    4.0442 C   0  0  0  0  0  0  0  0  0  0  0  0
   12.2042   -0.9029    2.6264 C   0  0  0  0  0  0  0  0  0  0  0  0
   12.3334   -2.4028    2.6540 C   0  0  0  0  0  0  0  0  0  0  0  0
   13.2835   -3.0119    2.1705 O   0  0  0  0  0  0  0  0  0  0  0  0
    8.7620    1.0446    2.5478 C   0  0  0  0  0  0  0  0  0  0  0  0
    7.4589    0.5572    2.4470 C   0  0  0  0  0  0  0  0  0  0  0  0
    6.2662   -0.0805    1.9068 C   0  0  0  0  0  0  0  0  0  0  0  0
    2.9686   -0.2557    1.0344 H   0  0  0  0  0  0  0  0  0  0  0  0
    4.0957   -1.6147    1.0376 H   0  0  0  0  0  0  0  0  0  0  0  0
    4.2663   -0.2867   -0.1559 H   0  0  0  0  0  0  0  0  0  0  0  0
    3.5541    1.3990    3.0138 H   0  0  0  0  0  0  0  0  0  0  0  0
    4.2582    2.2288    0.2778 H   0  0  0  0  0  0  0  0  0  0  0  0
    4.8057    4.1165    2.5078 H   0  0  0  0  0  0  0  0  0  0  0  0
    7.4117    1.8291    0.3912 H   0  0  0  0  0  0  0  0  0  0  0  0
    7.9572    3.2777   -0.2793 H   0  0  0  0  0  0  0  0  0  0  0  0
    5.5740    1.4892   -1.1438 H   0  0  0  0  0  0  0  0  0  0  0  0
    7.2082    1.3867   -1.6835 H   0  0  0  0  0  0  0  0  0  0  0  0
    7.0928    3.4682   -2.9211 H   0  0  0  0  0  0  0  0  0  0  0  0
    5.4221    3.7129   -2.3971 H   0  0  0  0  0  0  0  0  0  0  0  0
    4.8171    1.4795   -3.4810 H   0  0  0  0  0  0  0  0  0  0  0  0
    6.4773    1.3256   -4.0429 H   0  0  0  0  0  0  0  0  0  0  0  0
    6.2207    3.4129   -5.3945 H   0  0  0  0  0  0  0  0  0  0  0  0
    4.5582    3.5770   -4.8183 H   0  0  0  0  0  0  0  0  0  0  0  0
    3.9770    1.3742   -5.8915 H   0  0  0  0  0  0  0  0  0  0  0  0
    5.6334    1.2314   -6.4843 H   0  0  0  0  0  0  0  0  0  0  0  0
    5.3672    3.3767   -7.7486 H   0  0  0  0  0  0  0  0  0  0  0  0
    3.7147    3.5277   -7.1499 H   0  0  0  0  0  0  0  0  0  0  0  0
    3.1029    1.3884   -8.3017 H   0  0  0  0  0  0  0  0  0  0  0  0
    4.7559    1.2424   -8.9052 H   0  0  0  0  0  0  0  0  0  0  0  0
    4.5129    3.4337  -10.1030 H   0  0  0  0  0  0  0  0  0  0  0  0
    2.8629    3.5834   -9.4988 H   0  0  0  0  0  0  0  0  0  0  0  0
    3.8842    1.3392  -11.3177 H   0  0  0  0  0  0  0  0  0  0  0  0
    2.8798    2.7128  -11.8130 H   0  0  0  0  0  0  0  0  0  0  0  0
    2.2228    1.4907  -10.7105 H   0  0  0  0  0  0  0  0  0  0  0  0
    7.5559    4.9008    2.4115 H   0  0  0  0  0  0  0  0  0  0  0  0
    6.6889    2.4341    3.9169 H   0  0  0  0  0  0  0  0  0  0  0  0
    9.2024    3.6089    4.7983 H   0  0  0  0  0  0  0  0  0  0  0  0
   11.2460    3.0345    3.6943 H   0  0  0  0  0  0  0  0  0  0  0  0
   11.2214    1.9285    2.3715 H   0  0  0  0  0  0  0  0  0  0  0  0
   12.0566    1.4009    5.2340 H   0  0  0  0  0  0  0  0  0  0  0  0
   13.0197    1.4430    3.7819 H   0  0  0  0  0  0  0  0  0  0  0  0
   11.0094   -0.7449    4.4252 H   0  0  0  0  0  0  0  0  0  0  0  0
   12.7350   -0.8105    4.6930 H   0  0  0  0  0  0  0  0  0  0  0  0
   13.1265   -0.4887    2.2046 H   0  0  0  0  0  0  0  0  0  0  0  0
   11.3718   -0.6468    1.9622 H   0  0  0  0  0  0  0  0  0  0  0  0
   11.4846   -2.9522    3.1045 H   0  0  0  0  0  0  0  0  0  0  0  0
    9.3798    1.0528    1.6418 H   0  0  0  0  0  0  0  0  0  0  0  0
    7.7553    0.3430    1.3723 H   0  0  0  0  0  0  0  0  0  0  0  0
    6.5064   -0.9554    1.2238 H   0  0  0  0  0  0  0  0  0  0  0  0
  1  2  1  0  0  0  0
  1 30  1  0  0  0  0
  1 31  1  0  0  0  0
  1 32  1  0  0  0  0
  2  3  1  0  0  0  0
  2 29  2  3  0  0  0
  3  4  2  3  0  0  0
  3 33  1  0  0  0  0
  4  5  1  0  0  0  0
  4 34  1  0  0  0  0
  5  6  2  3  0  0  0
  5 35  1  0  0  0  0
  6  7  1  0  0  0  0
  6 17  1  0  0  0  0
  7  8  1  0  0  0  0
  7 36  1  0  0  0  0
  7 37  1  0  0  0  0
  8  9  1  0  0  0  0
  8 38  1  0  0  0  0
  8 39  1  0  0  0  0
  9 10  1  0  0  0  0
  9 40  1  0  0  0  0
  9 41  1  0  0  0  0
 10 11  1  0  0  0  0
 10 42  1  0  0  0  0
 10 43  1  0  0  0  0
 11 12  1  0  0  0  0
 11 44  1  0  0  0  0
 11 45  1  0  0  0  0
 12 13  1  0  0  0  0
 12 46  1  0  0  0  0
 12 47  1  0  0  0  0
 13 14  1  0  0  0  0
 13 48  1  0  0  0  0
 13 49  1  0  0  0  0
 14 15  1  0  0  0  0
 14 50  1  0  0  0  0
 14 51  1  0  0  0  0
 15 16  1  0  0  0  0
 15 52  1  0  0  0  0
 15 53  1  0  0  0  0
 16 54  1  0  0  0  0
 16 55  1  0  0  0  0
 16 56  1  0  0  0  0
 17 18  2  3  0  0  0
 17 57  1  0  0  0  0
 18 19  1  0  0  0  0
 18 58  1  0  0  0  0
 19 20  2  3  0  0  0
 19 59  1  0  0  0  0
 20 21  1  0  0  0  0
 20 27  1  0  0  0  0
 21 22  1  0  0  0  0
 21 60  1  0  0  0  0
 21 61  1  0  0  0  0
 22 23  1  0  0  0  0
 22 62  1  0  0  0  0
 22 63  1  0  0  0  0
 23 24  1  0  0  0  0
 23 64  1  0  0  0  0
 23 65  1  0  0  0  0
 24 25  1  0  0  0  0
 24 66  1  0  0  0  0
 24 67  1  0  0  0  0
 25 26  2  0  0  0  0
 25 68  1  0  0  0  0
 27 28  2  3  0  0  0
 27 69  1  0  0  0  0
 28 29  1  0  0  0  0
 28 70  1  0  0  0  0
 29 71  1  0  0  0  0
M  END
$$$$
