
 OpenBabel04232216473D

 58 60  0  0  1  0  0  0  0  0999 V2000
    7.1214   -7.4478    0.1535 C   0  0  0  0  0  0  0  0  0  0  0  0
    7.1269   -5.9209    0.0424 C   0  0  0  0  0  0  0  0  0  0  0  0
    8.2752   -5.3113    0.4759 C   0  0  0  0  0  0  0  0  0  0  0  0
    8.9463   -3.9643    0.1303 C   0  0  0  0  0  0  0  0  0  0  0  0
    8.9340   -2.8230    1.1282 N   0  0  0  0  0  0  0  0  0  0  0  0
    9.1760   -1.4868    0.4722 C   0  0  0  0  0  0  0  0  0  0  0  0
    9.4189   -0.1700    1.1640 C   0  0  0  0  0  0  0  0  0  0  0  0
   10.6134   -0.1671    2.0812 C   0  0  0  0  0  0  0  0  0  0  0  0
   10.1842   -0.2998    3.5323 C   0  0  0  0  0  0  0  0  0  0  0  0
    9.6274   -1.6829    3.8756 C   0  0  0  0  0  0  0  0  0  0  0  0
    8.2131   -1.9432    3.3625 C   0  0  0  0  0  0  0  0  0  0  0  0
    8.1935   -3.0739    2.3519 C   0  0  0  0  0  0  0  0  0  0  0  0
   10.5164   -4.2826    0.1150 C   0  0  0  0  0  0  0  0  0  0  0  0
   11.1044   -5.3620   -0.7816 C   0  0  0  0  0  0  0  0  0  0  0  0
    8.2280   -3.3940   -1.0627 C   0  0  0  0  0  0  0  0  0  0  0  0
    8.9901   -3.0592   -2.3058 C   0  0  0  0  0  0  0  0  0  0  0  0
    6.7988   -3.0743   -0.9438 C   0  0  0  0  0  0  0  0  0  0  0  0
    6.0264   -1.7978   -0.7371 C   0  0  3  0  0  3  0  0  0  0  0  0
    5.7780   -1.2890    0.7034 C   0  0  0  0  0  0  0  0  0  0  0  0
    4.7099   -2.0400   -1.3144 C   0  0  0  0  0  0  0  0  0  0  0  0
    4.5812   -3.3736   -1.3359 C   0  0  0  0  0  0  0  0  0  0  0  0
    5.8439   -4.0323   -0.9183 C   0  0  0  0  0  0  0  0  0  0  0  0
    5.9643   -5.3803   -0.5904 N   0  0  0  0  0  0  0  0  0  0  0  0
    4.7020   -6.1534   -0.4338 C   0  0  0  0  0  0  0  0  0  0  0  0
    8.1327   -7.8708    0.2357 H   0  0  0  0  0  0  0  0  0  0  0  0
    6.7077   -7.8896   -0.7655 H   0  0  0  0  0  0  0  0  0  0  0  0
    6.5349   -7.7943    1.0062 H   0  0  0  0  0  0  0  0  0  0  0  0
    8.9570   -5.9662    1.0204 H   0  0  0  0  0  0  0  0  0  0  0  0
    8.3638   -1.2368   -0.2040 H   0  0  0  0  0  0  0  0  0  0  0  0
   10.0552   -1.6062   -0.1714 H   0  0  0  0  0  0  0  0  0  0  0  0
    8.5156    0.2385    1.6161 H   0  0  0  0  0  0  0  0  0  0  0  0
    9.6421    0.5420    0.3492 H   0  0  0  0  0  0  0  0  0  0  0  0
   11.1355    0.7906    1.9620 H   0  0  0  0  0  0  0  0  0  0  0  0
   11.3353   -0.9464    1.8042 H   0  0  0  0  0  0  0  0  0  0  0  0
    9.4472    0.4775    3.7709 H   0  0  0  0  0  0  0  0  0  0  0  0
   11.0614   -0.1073    4.1581 H   0  0  0  0  0  0  0  0  0  0  0  0
    9.6039   -1.7500    4.9761 H   0  0  0  0  0  0  0  0  0  0  0  0
   10.3311   -2.4517    3.5381 H   0  0  0  0  0  0  0  0  0  0  0  0
    7.7180   -1.0493    2.9788 H   0  0  0  0  0  0  0  0  0  0  0  0
    7.5894   -2.2589    4.2090 H   0  0  0  0  0  0  0  0  0  0  0  0
    7.1676   -3.3815    2.1338 H   0  0  0  0  0  0  0  0  0  0  0  0
    8.6309   -3.9534    2.8410 H   0  0  0  0  0  0  0  0  0  0  0  0
   10.8006   -4.5609    1.1472 H   0  0  0  0  0  0  0  0  0  0  0  0
   11.0984   -3.3725   -0.0683 H   0  0  0  0  0  0  0  0  0  0  0  0
   10.6976   -6.3535   -0.5705 H   0  0  0  0  0  0  0  0  0  0  0  0
   12.1855   -5.4203   -0.5875 H   0  0  0  0  0  0  0  0  0  0  0  0
   10.9806   -5.1284   -1.8388 H   0  0  0  0  0  0  0  0  0  0  0  0
    9.1435   -3.9534   -2.9182 H   0  0  0  0  0  0  0  0  0  0  0  0
    9.9827   -2.6536   -2.0732 H   0  0  0  0  0  0  0  0  0  0  0  0
    8.4775   -2.3050   -2.9049 H   0  0  0  0  0  0  0  0  0  0  0  0
    4.7035   -1.1489    0.9177 H   0  0  0  0  0  0  0  0  0  0  0  0
    6.2531   -0.3222    0.8926 H   0  0  0  0  0  0  0  0  0  0  0  0
    6.0848   -1.9966    1.4666 H   0  0  0  0  0  0  0  0  0  0  0  0
    3.9762   -1.2716   -1.5306 H   0  0  0  0  0  0  0  0  0  0  0  0
    3.6946   -3.8677   -1.6689 H   0  0  0  0  0  0  0  0  0  0  0  0
    3.8003   -5.5407   -0.4247 H   0  0  0  0  0  0  0  0  0  0  0  0
    4.6679   -6.6761    0.5324 H   0  0  0  0  0  0  0  0  0  0  0  0
    4.6062   -6.8818   -1.2426 H   0  0  0  0  0  0  0  0  0  0  0  0
  1  2  1  0  0  0  0
  1 25  1  0  0  0  0
  1 26  1  0  0  0  0
  1 27  1  0  0  0  0
  2  3  2  0  0  0  0
  2 23  1  0  0  0  0
  3  4  1  0  0  0  0
  3 28  1  0  0  0  0
  4  5  1  0  0  0  0
  4 13  1  0  0  0  0
  4 15  2  0  0  0  0
  5  6  1  0  0  0  0
  5 12  1  0  0  0  0
  6  7  1  0  0  0  0
  6 29  1  0  0  0  0
  6 30  1  0  0  0  0
  7  8  1  0  0  0  0
  7 31  1  0  0  0  0
  7 32  1  0  0  0  0
  8  9  1  0  0  0  0
  8 33  1  0  0  0  0
  8 34  1  0  0  0  0
  9 10  1  0  0  0  0
  9 35  1  0  0  0  0
  9 36  1  0  0  0  0
 10 11  1  0  0  0  0
 10 37  1  0  0  0  0
 10 38  1  0  0  0  0
 11 12  1  0  0  0  0
 11 39  1  0  0  0  0
 11 40  1  0  0  0  0
 12 41  1  0  0  0  0
 12 42  1  0  0  0  0
 13 14  1  0  0  0  0
 13 43  1  0  0  0  0
 13 44  1  0  0  0  0
 14 45  1  0  0  0  0
 14 46  1  0  0  0  0
 14 47  1  0  0  0  0
 15 16  1  0  0  0  0
 15 17  1  0  0  0  0
 16 48  1  0  0  0  0
 16 49  1  0  0  0  0
 16 50  1  0  0  0  0
 17 18  1  0  0  0  0
 17 22  2  0  0  0  0
 18 19  1  0  0  0  0
 18 20  1  0  0  0  0
 19 51  1  0  0  0  0
 19 52  1  0  0  0  0
 19 53  1  0  0  0  0
 20 21  2  0  0  0  0
 20 54  1  0  0  0  0
 21 22  1  0  0  0  0
 21 55  1  0  0  0  0
 22 23  1  0  0  0  0
 23 24  1  0  0  0  0
 24 56  1  0  0  0  0
 24 57  1  0  0  0  0
 24 58  1  0  0  0  0
M  END
$$$$
