
 OpenBabel04232216433D

 42 42  0  0  0  0  0  0  0  0999 V2000
    8.5721    2.3255   -3.8881 C   0  0  0  0  0  0  0  0  0  0  0  0
    7.3401    2.2851   -2.9795 C   0  0  0  0  0  0  0  0  0  0  0  0
    6.1424    1.6168   -3.0089 C   0  0  0  0  0  0  0  0  0  0  0  0
    5.7935    0.5285   -2.0288 C   0  0  0  0  0  0  0  0  0  0  0  0
    5.8928   -0.7836   -2.3218 C   0  0  0  0  0  0  0  0  0  0  0  0
    7.2469   -1.2263   -2.0106 C   0  0  0  0  0  0  0  0  0  0  0  0
    8.0710   -1.0775   -3.0452 C   0  0  0  0  0  0  0  0  0  0  0  0
    9.4853   -0.7519   -2.9549 C   0  0  0  0  0  0  0  0  0  0  0  0
   10.0957   -0.0170   -1.7900 C   0  0  0  0  0  0  0  0  0  0  0  0
   10.0500   -1.0738   -4.0647 N   0  0  0  0  0  0  0  0  0  0  0  0
   11.3325   -0.8032   -4.3218 C   0  0  0  0  0  0  0  0  0  0  0  0
   11.6102   -0.6973   -5.6080 C   0  0  0  0  0  0  0  0  0  0  0  0
   12.9356   -0.6160   -6.0854 C   0  0  0  0  0  0  0  0  0  0  0  0
   13.1097   -0.2773   -7.3585 C   0  0  0  0  0  0  0  0  0  0  0  0
   14.4052    0.0339   -7.8159 C   0  0  0  0  0  0  0  0  0  0  0  0
   14.8648    1.2823   -7.7839 C   0  0  0  0  0  0  0  0  0  0  0  0
   14.4966    2.3675   -6.8639 C   0  0  0  0  0  0  0  0  0  0  0  0
   13.5330    2.8132   -6.0038 C   0  0  0  0  0  0  0  0  0  0  0  0
   12.1366    2.3799   -5.5200 C   0  0  0  0  0  0  0  0  0  0  0  0
   11.1048    2.5844   -4.6125 C   0  0  0  0  0  0  0  0  0  0  0  0
    9.6135    2.3185   -4.7810 C   0  0  0  0  0  0  0  0  0  0  0  0
    7.8485    1.9714   -4.6642 H   0  0  0  0  0  0  0  0  0  0  0  0
    7.2137    3.3124   -2.6018 H   0  0  0  0  0  0  0  0  0  0  0  0
    5.2523    2.2554   -2.8240 H   0  0  0  0  0  0  0  0  0  0  0  0
    6.0047    0.8005   -0.9916 H   0  0  0  0  0  0  0  0  0  0  0  0
    5.5889   -1.1459   -3.3105 H   0  0  0  0  0  0  0  0  0  0  0  0
    7.6084   -1.2390   -0.9899 H   0  0  0  0  0  0  0  0  0  0  0  0
    7.6895   -0.9662   -4.0646 H   0  0  0  0  0  0  0  0  0  0  0  0
    9.3669    0.1948   -1.0049 H   0  0  0  0  0  0  0  0  0  0  0  0
   10.5069    0.9453   -2.1124 H   0  0  0  0  0  0  0  0  0  0  0  0
   10.9065   -0.6162   -1.3731 H   0  0  0  0  0  0  0  0  0  0  0  0
   12.0790   -0.7652   -3.5371 H   0  0  0  0  0  0  0  0  0  0  0  0
   10.7897   -0.6437   -6.3254 H   0  0  0  0  0  0  0  0  0  0  0  0
   13.7659   -0.7469   -5.4054 H   0  0  0  0  0  0  0  0  0  0  0  0
   12.2796   -0.0382   -8.0203 H   0  0  0  0  0  0  0  0  0  0  0  0
   15.0367   -0.7993   -8.1216 H   0  0  0  0  0  0  0  0  0  0  0  0
   15.8244    1.4137   -8.2971 H   0  0  0  0  0  0  0  0  0  0  0  0
   15.4376    2.9321   -6.7833 H   0  0  0  0  0  0  0  0  0  0  0  0
   13.9119    3.6615   -5.4203 H   0  0  0  0  0  0  0  0  0  0  0  0
   12.8084    2.0413   -4.6790 H   0  0  0  0  0  0  0  0  0  0  0  0
   11.3554    2.7726   -3.5638 H   0  0  0  0  0  0  0  0  0  0  0  0
    9.3984    2.0311   -5.8138 H   0  0  0  0  0  0  0  0  0  0  0  0
  1  2  1  0  0  0  0
  1 21  2  3  0  0  0
  1 22  1  0  0  0  0
  2  3  2  3  0  0  0
  2 23  1  0  0  0  0
  3  4  1  0  0  0  0
  3 24  1  0  0  0  0
  4  5  2  3  0  0  0
  4 25  1  0  0  0  0
  5  6  1  0  0  0  0
  5 26  1  0  0  0  0
  6  7  2  3  0  0  0
  6 27  1  0  0  0  0
  7  8  1  0  0  0  0
  7 28  1  0  0  0  0
  8  9  1  0  0  0  0
  8 10  2  3  0  0  0
  9 29  1  0  0  0  0
  9 30  1  0  0  0  0
  9 31  1  0  0  0  0
 10 11  1  0  0  0  0
 11 12  2  3  0  0  0
 11 32  1  0  0  0  0
 12 13  1  0  0  0  0
 12 33  1  0  0  0  0
 13 14  2  3  0  0  0
 13 34  1  0  0  0  0
 14 15  1  0  0  0  0
 14 35  1  0  0  0  0
 15 16  2  3  0  0  0
 15 36  1  0  0  0  0
 16 17  1  0  0  0  0
 16 37  1  0  0  0  0
 17 18  2  3  0  0  0
 17 38  1  0  0  0  0
 18 19  1  0  0  0  0
 18 39  1  0  0  0  0
 19 20  2  3  0  0  0
 19 40  1  0  0  0  0
 20 21  1  0  0  0  0
 20 41  1  0  0  0  0
 21 42  1  0  0  0  0
M  END
$$$$
