
 OpenBabel04232217023D

 93 92  0  0  0  0  0  0  0  0999 V2000
   15.4017   -7.3051   -7.2386 O   0  0  0  0  0  0  0  0  0  0  0  0
   14.9959   -7.4130   -5.8435 O   0  0  0  0  0  0  0  0  0  0  0  0
   13.5784   -7.3614   -5.8570 C   0  0  0  0  0  0  0  0  0  0  0  0
   13.0687   -7.4711   -4.4424 C   0  0  0  0  0  0  0  0  0  0  0  0
   11.5417   -7.4157   -4.3858 C   0  0  0  0  0  0  0  0  0  0  0  0
   11.0275   -7.5211   -2.9338 C   0  0  0  0  0  0  0  0  0  0  0  0
   11.5430   -6.4161   -2.1193 N   0  0  0  0  0  0  0  0  0  0  0  0
   11.0773   -6.4868   -0.7477 N   0  0  0  0  0  0  0  0  0  0  0  0
   11.7535   -5.2267    0.1070 S   0  0  0  0  0  0  0  0  0  0  0  0
   11.0319   -5.5206    2.0153 S   0  0  0  0  0  0  0  0  0  0  0  0
   11.7379   -7.3358    2.7097 S   0  0  0  0  0  0  0  0  0  0  0  0
   13.8147   -7.3166    2.7608 S   0  0  0  0  0  0  0  0  0  0  0  0
   14.4868   -9.1994    3.4255 S   0  0  0  0  0  0  0  0  0  0  0  0
   16.5980   -9.1921    3.4231 S   0  0  0  0  0  0  0  0  0  0  0  0
   17.2900  -11.0652    4.1060 S   0  0  0  0  0  0  0  0  0  0  0  0
   19.4005  -11.0532    4.1016 S   0  0  0  0  0  0  0  0  0  0  0  0
   20.0918  -12.9262    4.7841 S   0  0  0  0  0  0  0  0  0  0  0  0
   22.2014  -12.9139    4.7796 S   0  0  0  0  0  0  0  0  0  0  0  0
   22.8921  -14.7866    5.4621 S   0  0  0  0  0  0  0  0  0  0  0  0
   25.0015  -14.7742    5.4575 S   0  0  0  0  0  0  0  0  0  0  0  0
   25.6921  -16.6469    6.1399 S   0  0  0  0  0  0  0  0  0  0  0  0
   27.8015  -16.6344    6.1354 S   0  0  0  0  0  0  0  0  0  0  0  0
   28.4921  -18.5071    6.8178 S   0  0  0  0  0  0  0  0  0  0  0  0
   30.6015  -18.4946    6.8133 S   0  0  0  0  0  0  0  0  0  0  0  0
   31.2921  -20.3673    7.4957 S   0  0  0  0  0  0  0  0  0  0  0  0
   33.4014  -20.3549    7.4912 S   0  0  0  0  0  0  0  0  0  0  0  0
   34.0921  -22.2276    8.1736 S   0  0  0  0  0  0  0  0  0  0  0  0
   36.2014  -22.2151    8.1691 S   0  0  0  0  0  0  0  0  0  0  0  0
   36.8921  -24.0878    8.8515 S   0  0  0  0  0  0  0  0  0  0  0  0
   39.0014  -24.0754    8.8469 S   0  0  0  0  0  0  0  0  0  0  0  0
   39.6921  -25.9480    9.5294 S   0  0  0  0  0  0  0  0  0  0  0  0
   41.8014  -25.9356    9.5248 S   0  0  0  0  0  0  0  0  0  0  0  0
   42.4920  -27.8083   10.2072 S   0  0  0  0  0  0  0  0  0  0  0  0
   44.6014  -27.7958   10.2027 S   0  0  0  0  0  0  0  0  0  0  0  0
   45.2920  -29.6685   10.8851 S   0  0  0  0  0  0  0  0  0  0  0  0
   47.4014  -29.6561   10.8806 S   0  0  0  0  0  0  0  0  0  0  0  0
   48.0920  -31.5288   11.5630 S   0  0  0  0  0  0  0  0  0  0  0  0
   50.2014  -31.5163   11.5585 S   0  0  0  0  0  0  0  0  0  0  0  0
   50.8920  -33.3890   12.2409 S   0  0  0  0  0  0  0  0  0  0  0  0
   53.0014  -33.3766   12.2364 S   0  0  0  0  0  0  0  0  0  0  0  0
   53.6920  -35.2492   12.9188 S   0  0  0  0  0  0  0  0  0  0  0  0
   55.8014  -35.2368   12.9142 S   0  0  0  0  0  0  0  0  0  0  0  0
   56.4920  -37.1095   13.5967 S   0  0  0  0  0  0  0  0  0  0  0  0
   58.6014  -37.0970   13.5921 S   0  0  0  0  0  0  0  0  0  0  0  0
   59.2920  -38.9697   14.2745 S   0  0  0  0  0  0  0  0  0  0  0  0
   61.4014  -38.9573   14.2700 S   0  0  0  0  0  0  0  0  0  0  0  0
   62.0920  -40.8300   14.9524 S   0  0  0  0  0  0  0  0  0  0  0  0
   64.2014  -40.8175   14.9479 S   0  0  0  0  0  0  0  0  0  0  0  0
   64.8920  -42.6902   15.6303 S   0  0  0  0  0  0  0  0  0  0  0  0
   67.0014  -42.6777   15.6258 S   0  0  0  0  0  0  0  0  0  0  0  0
   67.6920  -44.5504   16.3082 S   0  0  0  0  0  0  0  0  0  0  0  0
   69.8013  -44.5380   16.3036 S   0  0  0  0  0  0  0  0  0  0  0  0
   70.4920  -46.4107   16.9861 S   0  0  0  0  0  0  0  0  0  0  0  0
   72.6013  -46.3982   16.9815 S   0  0  0  0  0  0  0  0  0  0  0  0
   73.2920  -48.2709   17.6640 S   0  0  0  0  0  0  0  0  0  0  0  0
   75.4013  -48.2585   17.6594 S   0  0  0  0  0  0  0  0  0  0  0  0
   76.0920  -50.1311   18.3418 S   0  0  0  0  0  0  0  0  0  0  0  0
   78.2013  -50.1187   18.3373 S   0  0  0  0  0  0  0  0  0  0  0  0
   78.8919  -51.9914   19.0197 S   0  0  0  0  0  0  0  0  0  0  0  0
   81.0013  -51.9789   19.0152 S   0  0  0  0  0  0  0  0  0  0  0  0
   81.6919  -53.8516   19.6976 S   0  0  0  0  0  0  0  0  0  0  0  0
   83.8013  -53.8392   19.6931 S   0  0  0  0  0  0  0  0  0  0  0  0
   84.4919  -55.7119   20.3755 S   0  0  0  0  0  0  0  0  0  0  0  0
   86.6013  -55.6994   20.3709 S   0  0  0  0  0  0  0  0  0  0  0  0
   87.2919  -57.5721   21.0534 S   0  0  0  0  0  0  0  0  0  0  0  0
   89.4013  -57.5596   21.0488 S   0  0  0  0  0  0  0  0  0  0  0  0
   90.0919  -59.4323   21.7312 S   0  0  0  0  0  0  0  0  0  0  0  0
   92.2013  -59.4199   21.7267 S   0  0  0  0  0  0  0  0  0  0  0  0
   92.8919  -61.2926   22.4091 S   0  0  0  0  0  0  0  0  0  0  0  0
   95.0013  -61.2801   22.4046 S   0  0  0  0  0  0  0  0  0  0  0  0
   95.6919  -63.1528   23.0870 S   0  0  0  0  0  0  0  0  0  0  0  0
   97.8012  -63.1403   23.0825 S   0  0  0  0  0  0  0  0  0  0  0  0
   98.4917  -65.0129   23.7649 S   0  0  0  0  0  0  0  0  0  0  0  0
  100.6007  -65.0003   23.7603 S   0  0  0  0  0  0  0  0  0  0  0  0
  101.2905  -66.8724   24.4425 S   0  0  0  0  0  0  0  0  0  0  0  0
  103.3973  -66.8582   24.4370 S   0  0  0  0  0  0  0  0  0  0  0  0
  104.0833  -68.7269   25.1182 S   0  0  0  0  0  0  0  0  0  0  0  0
  106.1786  -68.6927   25.1263 S   0  0  0  0  0  0  0  0  0  0  0  0
  106.8593  -70.5608   25.7428 S   0  0  0  0  0  0  0  0  0  0  0  0
  108.9401  -70.5055   25.7715 S   0  0  0  0  0  0  0  0  0  0  0  0
  109.5460  -70.2289   23.8267 S   0  0  0  0  0  0  0  0  0  0  0  0
   16.3260   -7.3486   -7.0811 H   0  0  0  0  0  0  0  0  0  0  0  0
   13.1960   -8.1913   -6.4697 H   0  0  0  0  0  0  0  0  0  0  0  0
   13.2554   -6.4149   -6.3120 H   0  0  0  0  0  0  0  0  0  0  0  0
   13.5039   -6.6593   -3.8426 H   0  0  0  0  0  0  0  0  0  0  0  0
   13.4338   -8.4050   -3.9904 H   0  0  0  0  0  0  0  0  0  0  0  0
   11.1300   -8.2355   -4.9887 H   0  0  0  0  0  0  0  0  0  0  0  0
   11.1902   -6.4839   -4.8407 H   0  0  0  0  0  0  0  0  0  0  0  0
   11.3491   -8.4904   -2.5240 H   0  0  0  0  0  0  0  0  0  0  0  0
    9.9335   -7.5091   -2.9516 H   0  0  0  0  0  0  0  0  0  0  0  0
   11.2467   -5.5319   -2.5423 H   0  0  0  0  0  0  0  0  0  0  0  0
   11.4340   -7.3657   -0.3626 H   0  0  0  0  0  0  0  0  0  0  0  0
  110.8908  -70.2168   23.9278 H   0  0  0  0  0  0  0  0  0  0  0  0
  1  2  1  0  0  0  0
  1 82  1  0  0  0  0
  2  3  1  0  0  0  0
  3  4  1  0  0  0  0
  3 83  1  0  0  0  0
  3 84  1  0  0  0  0
  4  5  1  0  0  0  0
  4 85  1  0  0  0  0
  4 86  1  0  0  0  0
  5  6  1  0  0  0  0
  5 87  1  0  0  0  0
  5 88  1  0  0  0  0
  6  7  1  0  0  0  0
  6 89  1  0  0  0  0
  6 90  1  0  0  0  0
  7  8  1  0  0  0  0
  7 91  1  0  0  0  0
  8  9  1  0  0  0  0
  8 92  1  0  0  0  0
  9 10  1  0  0  0  0
 10 11  1  0  0  0  0
 11 12  1  0  0  0  0
 12 13  1  0  0  0  0
 13 14  1  0  0  0  0
 14 15  1  0  0  0  0
 15 16  1  0  0  0  0
 16 17  1  0  0  0  0
 17 18  1  0  0  0  0
 18 19  1  0  0  0  0
 19 20  1  0  0  0  0
 20 21  1  0  0  0  0
 21 22  1  0  0  0  0
 22 23  1  0  0  0  0
 23 24  1  0  0  0  0
 24 25  1  0  0  0  0
 25 26  1  0  0  0  0
 26 27  1  0  0  0  0
 27 28  1  0  0  0  0
 28 29  1  0  0  0  0
 29 30  1  0  0  0  0
 30 31  1  0  0  0  0
 31 32  1  0  0  0  0
 32 33  1  0  0  0  0
 33 34  1  0  0  0  0
 34 35  1  0  0  0  0
 35 36  1  0  0  0  0
 36 37  1  0  0  0  0
 37 38  1  0  0  0  0
 38 39  1  0  0  0  0
 39 40  1  0  0  0  0
 40 41  1  0  0  0  0
 41 42  1  0  0  0  0
 42 43  1  0  0  0  0
 43 44  1  0  0  0  0
 44 45  1  0  0  0  0
 45 46  1  0  0  0  0
 46 47  1  0  0  0  0
 47 48  1  0  0  0  0
 48 49  1  0  0  0  0
 49 50  1  0  0  0  0
 50 51  1  0  0  0  0
 51 52  1  0  0  0  0
 52 53  1  0  0  0  0
 53 54  1  0  0  0  0
 54 55  1  0  0  0  0
 55 56  1  0  0  0  0
 56 57  1  0  0  0  0
 57 58  1  0  0  0  0
 58 59  1  0  0  0  0
 59 60  1  0  0  0  0
 60 61  1  0  0  0  0
 61 62  1  0  0  0  0
 62 63  1  0  0  0  0
 63 64  1  0  0  0  0
 64 65  1  0  0  0  0
 65 66  1  0  0  0  0
 66 67  1  0  0  0  0
 67 68  1  0  0  0  0
 68 69  1  0  0  0  0
 69 70  1  0  0  0  0
 70 71  1  0  0  0  0
 71 72  1  0  0  0  0
 72 73  1  0  0  0  0
 73 74  1  0  0  0  0
 74 75  1  0  0  0  0
 75 76  1  0  0  0  0
 76 77  1  0  0  0  0
 77 78  1  0  0  0  0
 78 79  1  0  0  0  0
 79 80  1  0  0  0  0
 80 81  1  0  0  0  0
 81 93  1  0  0  0  0
M  END
$$$$
