
 OpenBabel04232217013D

117116  0  0  0  0  0  0  0  0999 V2000
   21.3476    3.7617  -13.5316 O   0  0  0  0  0  0  0  0  0  0  0  0
   20.8128    3.7004  -12.2149 C   0  0  0  0  0  0  0  0  0  0  0  0
   21.3461    4.8583  -11.3911 C   0  0  0  0  0  0  0  0  0  0  0  0
   22.8750    4.8055  -11.2917 C   0  0  0  0  0  0  0  0  0  0  0  0
   23.4338    5.9653  -10.4725 C   0  0  0  0  0  0  0  0  0  0  0  0
   22.9136    5.9480   -9.1153 N   0  0  0  0  0  0  0  0  0  0  0  0
   23.4341    7.0112   -8.3726 N   0  0  0  0  0  0  0  0  0  0  0  0
   22.9020    7.0096   -7.0823 N   0  0  0  0  0  0  0  0  0  0  0  0
   23.4246    8.0701   -6.3518 N   0  0  0  0  0  0  0  0  0  0  0  0
   22.9035    8.0366   -5.0557 N   0  0  0  0  0  0  0  0  0  0  0  0
   23.4371    9.1234   -4.2999 N   0  0  0  0  0  0  0  0  0  0  0  0
   22.8879    9.1041   -2.9466 C   0  0  0  0  0  0  0  0  0  0  0  0
   23.4509   10.2552   -2.1393 C   0  0  0  0  0  0  0  0  0  0  0  0
   22.8893   10.2466   -0.7273 C   0  0  0  0  0  0  0  0  0  0  0  0
   23.4447   11.4025    0.0874 C   0  0  0  0  0  0  0  0  0  0  0  0
   22.8809   11.3820    1.5006 C   0  0  0  0  0  0  0  0  0  0  0  0
   23.4431   12.5446    2.3098 C   0  0  0  0  0  0  0  0  0  0  0  0
   22.8792   12.5314    3.7247 C   0  0  0  0  0  0  0  0  0  0  0  0
   23.4432   13.6919    4.5389 C   0  0  0  0  0  0  0  0  0  0  0  0
   22.8856   13.6812    5.9609 C   0  0  0  0  0  0  0  0  0  0  0  0
   23.4329   14.8224    6.7963 C   0  0  0  0  0  0  0  0  0  0  0  0
   22.7822   14.8161    8.5068 S   0  0  0  0  0  0  0  0  0  0  0  0
   23.3824   13.0245    9.3290 S   0  0  0  0  0  0  0  0  0  0  0  0
   25.4492   13.0164    9.3230 S   0  0  0  0  0  0  0  0  0  0  0  0
   26.1196   14.5744   10.5123 S   0  0  0  0  0  0  0  0  0  0  0  0
   28.2124   14.5534   10.4682 S   0  0  0  0  0  0  0  0  0  0  0  0
   28.8999   16.1620   11.6306 S   0  0  0  0  0  0  0  0  0  0  0  0
   31.0044   16.1460   11.6195 S   0  0  0  0  0  0  0  0  0  0  0  0
   31.6926   17.7605   12.7856 S   0  0  0  0  0  0  0  0  0  0  0  0
   33.8004   17.7492   12.7774 S   0  0  0  0  0  0  0  0  0  0  0  0
   34.4900   19.3645   13.9443 S   0  0  0  0  0  0  0  0  0  0  0  0
   36.5990   19.3537   13.9365 S   0  0  0  0  0  0  0  0  0  0  0  0
   37.2895   20.9692   15.1036 S   0  0  0  0  0  0  0  0  0  0  0  0
   39.3988   20.9585   15.0958 S   0  0  0  0  0  0  0  0  0  0  0  0
   40.0894   22.5741   16.2629 S   0  0  0  0  0  0  0  0  0  0  0  0
   42.1988   22.5634   16.2551 S   0  0  0  0  0  0  0  0  0  0  0  0
   42.8894   24.1791   17.4223 S   0  0  0  0  0  0  0  0  0  0  0  0
   44.9987   24.1683   17.4145 S   0  0  0  0  0  0  0  0  0  0  0  0
   45.6894   25.7840   18.5817 S   0  0  0  0  0  0  0  0  0  0  0  0
   47.7987   25.7733   18.5739 S   0  0  0  0  0  0  0  0  0  0  0  0
   48.4894   27.3889   19.7410 S   0  0  0  0  0  0  0  0  0  0  0  0
   50.5987   27.3782   19.7333 S   0  0  0  0  0  0  0  0  0  0  0  0
   51.2894   28.9939   20.9004 S   0  0  0  0  0  0  0  0  0  0  0  0
   53.3987   28.9831   20.8927 S   0  0  0  0  0  0  0  0  0  0  0  0
   54.0893   30.5988   22.0598 S   0  0  0  0  0  0  0  0  0  0  0  0
   56.1987   30.5881   22.0520 S   0  0  0  0  0  0  0  0  0  0  0  0
   56.8893   32.2038   23.2192 S   0  0  0  0  0  0  0  0  0  0  0  0
   58.9987   32.1930   23.2114 S   0  0  0  0  0  0  0  0  0  0  0  0
   59.6893   33.8087   24.3786 S   0  0  0  0  0  0  0  0  0  0  0  0
   61.7987   33.7980   24.3708 S   0  0  0  0  0  0  0  0  0  0  0  0
   62.4893   35.4137   25.5380 S   0  0  0  0  0  0  0  0  0  0  0  0
   64.5987   35.4029   25.5302 S   0  0  0  0  0  0  0  0  0  0  0  0
   65.2893   37.0186   26.6973 S   0  0  0  0  0  0  0  0  0  0  0  0
   67.3987   37.0079   26.6896 S   0  0  0  0  0  0  0  0  0  0  0  0
   68.0893   38.6235   27.8567 S   0  0  0  0  0  0  0  0  0  0  0  0
   70.1987   38.6128   27.8490 S   0  0  0  0  0  0  0  0  0  0  0  0
   70.8893   40.2285   29.0161 S   0  0  0  0  0  0  0  0  0  0  0  0
   72.9987   40.2177   29.0084 S   0  0  0  0  0  0  0  0  0  0  0  0
   73.6893   41.8334   30.1755 S   0  0  0  0  0  0  0  0  0  0  0  0
   75.7987   41.8227   30.1677 S   0  0  0  0  0  0  0  0  0  0  0  0
   76.4893   43.4384   31.3349 S   0  0  0  0  0  0  0  0  0  0  0  0
   78.5987   43.4276   31.3271 S   0  0  0  0  0  0  0  0  0  0  0  0
   79.2893   45.0433   32.4943 S   0  0  0  0  0  0  0  0  0  0  0  0
   81.3986   45.0326   32.4865 S   0  0  0  0  0  0  0  0  0  0  0  0
   82.0893   46.6482   33.6536 S   0  0  0  0  0  0  0  0  0  0  0  0
   84.1986   46.6375   33.6459 S   0  0  0  0  0  0  0  0  0  0  0  0
   84.8892   48.2532   34.8130 S   0  0  0  0  0  0  0  0  0  0  0  0
   86.9986   48.2424   34.8053 S   0  0  0  0  0  0  0  0  0  0  0  0
   87.6892   49.8581   35.9724 S   0  0  0  0  0  0  0  0  0  0  0  0
   89.7984   49.8473   35.9646 S   0  0  0  0  0  0  0  0  0  0  0  0
   90.4888   51.4629   37.1316 S   0  0  0  0  0  0  0  0  0  0  0  0
   92.5977   51.4519   37.1237 S   0  0  0  0  0  0  0  0  0  0  0  0
   93.2873   53.0670   38.2905 S   0  0  0  0  0  0  0  0  0  0  0  0
   95.3947   53.0552   38.2819 S   0  0  0  0  0  0  0  0  0  0  0  0
   96.0817   54.6688   39.4475 S   0  0  0  0  0  0  0  0  0  0  0  0
   98.1843   54.6528   39.4364 S   0  0  0  0  0  0  0  0  0  0  0  0
   98.8630   56.2620   40.5985 S   0  0  0  0  0  0  0  0  0  0  0  0
  100.9508   56.2464   40.5589 S   0  0  0  0  0  0  0  0  0  0  0  0
  101.6197   57.8012   41.7643 S   0  0  0  0  0  0  0  0  0  0  0  0
  103.6920   57.7918   41.6912 S   0  0  0  0  0  0  0  0  0  0  0  0
  104.2834   56.0250   42.5611 S   0  0  0  0  0  0  0  0  0  0  0  0
   20.9901    3.0019  -14.0103 H   0  0  0  0  0  0  0  0  0  0  0  0
   21.0909    2.7438  -11.7579 H   0  0  0  0  0  0  0  0  0  0  0  0
   19.7186    3.7546  -12.2815 H   0  0  0  0  0  0  0  0  0  0  0  0
   20.8985    4.8295  -10.3946 H   0  0  0  0  0  0  0  0  0  0  0  0
   21.0498    5.8089  -11.8586 H   0  0  0  0  0  0  0  0  0  0  0  0
   23.3195    4.8314  -12.2904 H   0  0  0  0  0  0  0  0  0  0  0  0
   23.1777    3.8519  -10.8362 H   0  0  0  0  0  0  0  0  0  0  0  0
   23.1650    6.9085  -10.9700 H   0  0  0  0  0  0  0  0  0  0  0  0
   24.5274    5.9004  -10.4547 H   0  0  0  0  0  0  0  0  0  0  0  0
   23.1596    5.0813   -8.6368 H   0  0  0  0  0  0  0  0  0  0  0  0
   23.1537    7.9073   -8.8072 H   0  0  0  0  0  0  0  0  0  0  0  0
   23.1399    6.1246   -6.6123 H   0  0  0  0  0  0  0  0  0  0  0  0
   23.1794    8.9464   -6.8178 H   0  0  0  0  0  0  0  0  0  0  0  0
   23.1672    7.1358   -4.6519 H   0  0  0  0  0  0  0  0  0  0  0  0
   23.1469    9.9728   -4.7858 H   0  0  0  0  0  0  0  0  0  0  0  0
   23.1617    8.1560   -2.4515 H   0  0  0  0  0  0  0  0  0  0  0  0
   21.7899    9.1600   -2.9650 H   0  0  0  0  0  0  0  0  0  0  0  0
   23.2048   11.2205   -2.6274 H   0  0  0  0  0  0  0  0  0  0  0  0
   24.5488   10.1948   -2.0991 H   0  0  0  0  0  0  0  0  0  0  0  0
   23.1411    9.2947   -0.2343 H   0  0  0  0  0  0  0  0  0  0  0  0
   21.7932   10.3081   -0.7593 H   0  0  0  0  0  0  0  0  0  0  0  0
   23.1891   12.3545   -0.3986 H   0  0  0  0  0  0  0  0  0  0  0  0
   24.5397   11.3421    0.1219 H   0  0  0  0  0  0  0  0  0  0  0  0
   23.1382   10.4322    1.9880 H   0  0  0  0  0  0  0  0  0  0  0  0
   21.7894   11.4431    1.4670 H   0  0  0  0  0  0  0  0  0  0  0  0
   23.1852   13.4915    1.8182 H   0  0  0  0  0  0  0  0  0  0  0  0
   24.5358   12.4820    2.3407 H   0  0  0  0  0  0  0  0  0  0  0  0
   23.1325   11.5778    4.2111 H   0  0  0  0  0  0  0  0  0  0  0  0
   21.7882   12.5945    3.6874 H   0  0  0  0  0  0  0  0  0  0  0  0
   23.1874   14.6406    4.0480 H   0  0  0  0  0  0  0  0  0  0  0  0
   24.5373   13.6264    4.5670 H   0  0  0  0  0  0  0  0  0  0  0  0
   23.1444   12.7172    6.4213 H   0  0  0  0  0  0  0  0  0  0  0  0
   21.7893   13.7373    5.9208 H   0  0  0  0  0  0  0  0  0  0  0  0
   23.1692   15.7838    6.3350 H   0  0  0  0  0  0  0  0  0  0  0  0
   24.5234   14.7877    6.8455 H   0  0  0  0  0  0  0  0  0  0  0  0
  105.6246   56.1126   42.4814 H   0  0  0  0  0  0  0  0  0  0  0  0
  1  2  1  0  0  0  0
  1 82  1  0  0  0  0
  2  3  1  0  0  0  0
  2 83  1  0  0  0  0
  2 84  1  0  0  0  0
  3  4  1  0  0  0  0
  3 85  1  0  0  0  0
  3 86  1  0  0  0  0
  4  5  1  0  0  0  0
  4 87  1  0  0  0  0
  4 88  1  0  0  0  0
  5  6  1  0  0  0  0
  5 89  1  0  0  0  0
  5 90  1  0  0  0  0
  6  7  1  0  0  0  0
  6 91  1  0  0  0  0
  7  8  1  0  0  0  0
  7 92  1  0  0  0  0
  8  9  1  0  0  0  0
  8 93  1  0  0  0  0
  9 10  1  0  0  0  0
  9 94  1  0  0  0  0
 10 11  1  0  0  0  0
 10 95  1  0  0  0  0
 11 12  1  0  0  0  0
 11 96  1  0  0  0  0
 12 13  1  0  0  0  0
 12 97  1  0  0  0  0
 12 98  1  0  0  0  0
 13 14  1  0  0  0  0
 13 99  1  0  0  0  0
 13100  1  0  0  0  0
 14 15  1  0  0  0  0
 14101  1  0  0  0  0
 14102  1  0  0  0  0
 15 16  1  0  0  0  0
 15103  1  0  0  0  0
 15104  1  0  0  0  0
 16 17  1  0  0  0  0
 16105  1  0  0  0  0
 16106  1  0  0  0  0
 17 18  1  0  0  0  0
 17107  1  0  0  0  0
 17108  1  0  0  0  0
 18 19  1  0  0  0  0
 18109  1  0  0  0  0
 18110  1  0  0  0  0
 19 20  1  0  0  0  0
 19111  1  0  0  0  0
 19112  1  0  0  0  0
 20 21  1  0  0  0  0
 20113  1  0  0  0  0
 20114  1  0  0  0  0
 21 22  1  0  0  0  0
 21115  1  0  0  0  0
 21116  1  0  0  0  0
 22 23  1  0  0  0  0
 23 24  1  0  0  0  0
 24 25  1  0  0  0  0
 25 26  1  0  0  0  0
 26 27  1  0  0  0  0
 27 28  1  0  0  0  0
 28 29  1  0  0  0  0
 29 30  1  0  0  0  0
 30 31  1  0  0  0  0
 31 32  1  0  0  0  0
 32 33  1  0  0  0  0
 33 34  1  0  0  0  0
 34 35  1  0  0  0  0
 35 36  1  0  0  0  0
 36 37  1  0  0  0  0
 37 38  1  0  0  0  0
 38 39  1  0  0  0  0
 39 40  1  0  0  0  0
 40 41  1  0  0  0  0
 41 42  1  0  0  0  0
 42 43  1  0  0  0  0
 43 44  1  0  0  0  0
 44 45  1  0  0  0  0
 45 46  1  0  0  0  0
 46 47  1  0  0  0  0
 47 48  1  0  0  0  0
 48 49  1  0  0  0  0
 49 50  1  0  0  0  0
 50 51  1  0  0  0  0
 51 52  1  0  0  0  0
 52 53  1  0  0  0  0
 53 54  1  0  0  0  0
 54 55  1  0  0  0  0
 55 56  1  0  0  0  0
 56 57  1  0  0  0  0
 57 58  1  0  0  0  0
 58 59  1  0  0  0  0
 59 60  1  0  0  0  0
 60 61  1  0  0  0  0
 61 62  1  0  0  0  0
 62 63  1  0  0  0  0
 63 64  1  0  0  0  0
 64 65  1  0  0  0  0
 65 66  1  0  0  0  0
 66 67  1  0  0  0  0
 67 68  1  0  0  0  0
 68 69  1  0  0  0  0
 69 70  1  0  0  0  0
 70 71  1  0  0  0  0
 71 72  1  0  0  0  0
 72 73  1  0  0  0  0
 73 74  1  0  0  0  0
 74 75  1  0  0  0  0
 75 76  1  0  0  0  0
 76 77  1  0  0  0  0
 77 78  1  0  0  0  0
 78 79  1  0  0  0  0
 79 80  1  0  0  0  0
 80 81  1  0  0  0  0
 81117  1  0  0  0  0
M  END
$$$$
