
 OpenBabel04232216573D

173172  0  0  0  0  0  0  0  0999 V2000
   27.2260   22.3630    3.3000 N   0  0  0  0  0  0  0  0  0  0  0  0
   26.3660   21.4694    2.9250 C   0  0  0  0  0  0  0  0  0  0  0  0
   24.9175   21.8021    2.5465 C   0  0  0  0  0  0  0  0  0  0  0  0
   24.6678   23.2584    2.5878 N   0  0  0  0  0  0  0  0  0  0  0  0
   25.5489   23.9126    1.6444 N   0  0  0  0  0  0  0  0  0  0  0  0
   25.2975   23.4520    0.3330 N   0  0  0  0  0  0  0  0  0  0  0  0
   26.1772   24.0661   -0.5809 N   0  0  0  0  0  0  0  0  0  0  0  0
   27.5394   23.7786   -0.2444 N   0  0  0  0  0  0  0  0  0  0  0  0
   27.7606   22.3543   -0.2748 N   0  0  0  0  0  0  0  0  0  0  0  0
   27.4844   21.8483   -1.5877 N   0  0  0  0  0  0  0  0  0  0  0  0
   28.3369   22.4911   -2.5491 N   0  0  0  0  0  0  0  0  0  0  0  0
   29.7053   22.2142   -2.2106 N   0  0  0  0  0  0  0  0  0  0  0  0
   29.9107   20.8064   -2.1922 N   0  0  0  0  0  0  0  0  0  0  0  0
   29.6282   20.2946   -3.5065 N   0  0  0  0  0  0  0  0  0  0  0  0
   30.4765   20.9320   -4.4860 N   0  0  0  0  0  0  0  0  0  0  0  0
   31.8429   20.6788   -4.1480 N   0  0  0  0  0  0  0  0  0  0  0  0
   32.0638   19.2614   -4.1384 N   0  0  0  0  0  0  0  0  0  0  0  0
   31.7624   18.7305   -5.4437 N   0  0  0  0  0  0  0  0  0  0  0  0
   32.6073   19.3519   -6.4248 N   0  0  0  0  0  0  0  0  0  0  0  0
   33.9827   19.1113   -6.1135 N   0  0  0  0  0  0  0  0  0  0  0  0
   34.2251   17.7085   -6.1010 N   0  0  0  0  0  0  0  0  0  0  0  0
   33.9060   17.1529   -7.3812 N   0  0  0  0  0  0  0  0  0  0  0  0
   34.7301   17.7580   -8.3924 N   0  0  0  0  0  0  0  0  0  0  0  0
   36.1054   17.5594   -8.0859 N   0  0  0  0  0  0  0  0  0  0  0  0
   36.3568   16.1559   -8.0455 N   0  0  0  0  0  0  0  0  0  0  0  0
   36.0409   15.5842   -9.3333 N   0  0  0  0  0  0  0  0  0  0  0  0
   36.8426   16.1991  -10.3642 N   0  0  0  0  0  0  0  0  0  0  0  0
   38.2153   15.9781  -10.0809 N   0  0  0  0  0  0  0  0  0  0  0  0
   38.4752   14.5833  -10.0107 N   0  0  0  0  0  0  0  0  0  0  0  0
   38.1473   13.9896  -11.2704 N   0  0  0  0  0  0  0  0  0  0  0  0
   38.9276   14.5832  -12.3280 N   0  0  0  0  0  0  0  0  0  0  0  0
   40.3199   14.4015  -12.0432 N   0  0  0  0  0  0  0  0  0  0  0  0
   40.6021   13.0045  -11.9785 N   0  0  0  0  0  0  0  0  0  0  0  0
   40.2762   12.3724  -13.2298 N   0  0  0  0  0  0  0  0  0  0  0  0
   41.0186   12.9825  -14.2657 N   0  0  0  0  0  0  0  0  0  0  0  0
   42.4133   12.8184  -14.0045 N   0  0  0  0  0  0  0  0  0  0  0  0
   42.7243   11.4249  -13.9225 N   0  0  0  0  0  0  0  0  0  0  0  0
   42.3815   10.7744  -15.1502 N   0  0  0  0  0  0  0  0  0  0  0  0
   43.1184   11.3768  -16.2145 N   0  0  0  0  0  0  0  0  0  0  0  0
   44.5283   11.2299  -15.9713 N   0  0  0  0  0  0  0  0  0  0  0  0
   44.8694    9.8391  -15.8600 N   0  0  0  0  0  0  0  0  0  0  0  0
   44.5131    9.1825  -17.0784 N   0  0  0  0  0  0  0  0  0  0  0  0
   45.2533    9.7752  -18.1707 N   0  0  0  0  0  0  0  0  0  0  0  0
   46.6678    9.6656  -17.9432 N   0  0  0  0  0  0  0  0  0  0  0  0
   47.0138    8.2904  -17.8190 N   0  0  0  0  0  0  0  0  0  0  0  0
   46.6569    7.6137  -19.0372 N   0  0  0  0  0  0  0  0  0  0  0  0
   47.3539    8.2057  -20.1531 N   0  0  0  0  0  0  0  0  0  0  0  0
   48.7588    8.1177  -19.9376 N   0  0  0  0  0  0  0  0  0  0  0  0
   49.1232    6.7439  -19.8123 N   0  0  0  0  0  0  0  0  0  0  0  0
   48.7451    6.0404  -21.0008 N   0  0  0  0  0  0  0  0  0  0  0  0
   49.4222    6.6258  -22.1312 N   0  0  0  0  0  0  0  0  0  0  0  0
   50.8382    6.5384  -21.9336 N   0  0  0  0  0  0  0  0  0  0  0  0
   51.2210    5.1800  -21.7980 N   0  0  0  0  0  0  0  0  0  0  0  0
   50.8518    4.4572  -22.9714 N   0  0  0  0  0  0  0  0  0  0  0  0
   51.5116    5.0171  -24.1274 N   0  0  0  0  0  0  0  0  0  0  0  0
   52.9302    4.9606  -23.9317 N   0  0  0  0  0  0  0  0  0  0  0  0
   53.3158    3.5966  -23.7675 N   0  0  0  0  0  0  0  0  0  0  0  0
   52.9453    2.8515  -24.9274 N   0  0  0  0  0  0  0  0  0  0  0  0
   53.5874    3.3973  -26.0966 N   0  0  0  0  0  0  0  0  0  0  0  0
   55.0243    3.3466  -25.9584 N   0  0  0  0  0  0  0  0  0  0  0  0
   55.4319    2.0052  -25.7708 N   0  0  0  0  0  0  0  0  0  0  0  0
   55.0412    1.2519  -26.9024 N   0  0  0  0  0  0  0  0  0  0  0  0
   55.6297    1.8157  -28.0672 N   0  0  0  0  0  0  0  0  0  0  0  0
   57.0637    1.7788  -27.9345 N   0  0  0  0  0  0  0  0  0  0  0  0
   57.5158    0.4212  -27.7463 N   0  0  0  0  0  0  0  0  0  0  0  0
   57.1213   -0.3705  -28.8845 N   0  0  0  0  0  0  0  0  0  0  0  0
   57.7175    0.1704  -30.0704 N   0  0  0  0  0  0  0  0  0  0  0  0
   59.1503    0.1683  -29.9241 N   0  0  0  0  0  0  0  0  0  0  0  0
   59.6033   -1.2111  -29.7284 C   0  0  0  0  0  0  0  0  0  0  0  0
   59.2085   -2.0127  -30.8588 N   0  0  0  0  0  0  0  0  0  0  0  0
   59.8283   -1.4905  -32.0796 C   0  0  0  0  0  0  0  0  0  0  0  0
   59.4318   -2.3293  -33.2740 C   0  0  0  0  0  0  0  0  0  0  0  0
   60.0649   -1.7740  -34.5369 C   0  0  0  0  0  0  0  0  0  0  0  0
   59.6733   -2.6156  -35.7333 C   0  0  0  0  0  0  0  0  0  0  0  0
   60.3037   -2.0613  -36.9931 C   0  0  0  0  0  0  0  0  0  0  0  0
   59.9113   -2.9036  -38.1878 C   0  0  0  0  0  0  0  0  0  0  0  0
   60.5417   -2.3491  -39.4471 C   0  0  0  0  0  0  0  0  0  0  0  0
   60.1481   -3.1899  -40.6422 C   0  0  0  0  0  0  0  0  0  0  0  0
   60.7769   -2.6348  -41.9038 C   0  0  0  0  0  0  0  0  0  0  0  0
   60.3814   -3.4766  -43.0932 C   0  0  0  0  0  0  0  0  0  0  0  0
   28.1764   22.0530    3.4828 H   0  0  0  0  0  0  0  0  0  0  0  0
   26.6464   20.4048    2.8946 H   0  0  0  0  0  0  0  0  0  0  0  0
   24.2473   21.2951    3.2390 H   0  0  0  0  0  0  0  0  0  0  0  0
   24.7125   21.4042    1.5380 H   0  0  0  0  0  0  0  0  0  0  0  0
   24.8866   23.5953    3.5321 H   0  0  0  0  0  0  0  0  0  0  0  0
   26.5307   23.6964    1.8748 H   0  0  0  0  0  0  0  0  0  0  0  0
   24.3400   23.6314    0.0695 H   0  0  0  0  0  0  0  0  0  0  0  0
   26.0232   25.0733   -0.5552 H   0  0  0  0  0  0  0  0  0  0  0  0
   27.7551   24.1431    0.6868 H   0  0  0  0  0  0  0  0  0  0  0  0
   27.1466   21.8946    0.4063 H   0  0  0  0  0  0  0  0  0  0  0  0
   26.5000   22.0238   -1.8353 H   0  0  0  0  0  0  0  0  0  0  0  0
   28.1679   23.5065   -2.5450 H   0  0  0  0  0  0  0  0  0  0  0  0
   29.9194   22.5915   -1.2790 H   0  0  0  0  0  0  0  0  0  0  0  0
   29.2947   20.3534   -1.5024 H   0  0  0  0  0  0  0  0  0  0  0  0
   28.6420   20.4730   -3.7500 H   0  0  0  0  0  0  0  0  0  0  0  0
   30.3014   21.9465   -4.4845 H   0  0  0  0  0  0  0  0  0  0  0  0
   32.0624   21.0588   -3.2217 H   0  0  0  0  0  0  0  0  0  0  0  0
   31.4655   18.8037   -3.4428 H   0  0  0  0  0  0  0  0  0  0  0  0
   30.7745   18.8909   -5.6834 H   0  0  0  0  0  0  0  0  0  0  0  0
   32.4599   20.3657   -6.4539 H   0  0  0  0  0  0  0  0  0  0  0  0
   34.2205   19.4996   -5.1971 H   0  0  0  0  0  0  0  0  0  0  0  0
   33.6439   17.2386   -5.4216 H   0  0  0  0  0  0  0  0  0  0  0  0
   32.9130   17.3172   -7.5859 H   0  0  0  0  0  0  0  0  0  0  0  0
   34.5644   18.7615   -8.4250 H   0  0  0  0  0  0  0  0  0  0  0  0
   36.3289   17.9748   -7.1767 H   0  0  0  0  0  0  0  0  0  0  0  0
   35.7810   15.7105   -7.3277 H   0  0  0  0  0  0  0  0  0  0  0  0
   35.0447   15.7483   -9.5481 H   0  0  0  0  0  0  0  0  0  0  0  0
   36.6328   17.2101  -10.3854 H   0  0  0  0  0  0  0  0  0  0  0  0
   38.4725   16.3728   -9.1837 H   0  0  0  0  0  0  0  0  0  0  0  0
   37.9169   14.1528   -9.2663 H   0  0  0  0  0  0  0  0  0  0  0  0
   37.1509   14.1189  -11.4694 H   0  0  0  0  0  0  0  0  0  0  0  0
   38.7470   15.5851  -12.3536 H   0  0  0  0  0  0  0  0  0  0  0  0
   40.5266   14.8538  -11.1453 H   0  0  0  0  0  0  0  0  0  0  0  0
   40.0480   12.5633  -11.2529 H   0  0  0  0  0  0  0  0  0  0  0  0
   39.2726   12.5192  -13.4079 H   0  0  0  0  0  0  0  0  0  0  0  0
   40.7844   13.9813  -14.3141 H   0  0  0  0  0  0  0  0  0  0  0  0
   42.6521   13.2435  -13.1142 H   0  0  0  0  0  0  0  0  0  0  0  0
   42.1792   11.0007  -13.1722 H   0  0  0  0  0  0  0  0  0  0  0  0
   41.3727   10.9016  -15.3016 H   0  0  0  0  0  0  0  0  0  0  0  0
   42.9012   12.3663  -16.2793 H   0  0  0  0  0  0  0  0  0  0  0  0
   44.7748   11.6791  -15.0881 H   0  0  0  0  0  0  0  0  0  0  0  0
   44.3362    9.4477  -15.0703 H   0  0  0  0  0  0  0  0  0  0  0  0
   43.5056    9.2931  -17.2391 H   0  0  0  0  0  0  0  0  0  0  0  0
   45.0304   10.7707  -18.2390 H   0  0  0  0  0  0  0  0  0  0  0  0
   46.9053   10.1406  -17.0726 H   0  0  0  0  0  0  0  0  0  0  0  0
   46.4992    7.8944  -17.0268 H   0  0  0  0  0  0  0  0  0  0  0  0
   45.6393    7.7027  -19.1816 H   0  0  0  0  0  0  0  0  0  0  0  0
   47.1162    9.1924  -20.2319 H   0  0  0  0  0  0  0  0  0  0  0  0
   49.0128    8.5940  -19.0808 H   0  0  0  0  0  0  0  0  0  0  0  0
   48.6322    6.3443  -19.0030 H   0  0  0  0  0  0  0  0  0  0  0  0
   47.7326    6.1082  -21.1381 H   0  0  0  0  0  0  0  0  0  0  0  0
   49.1511    7.6105  -22.2141 H   0  0  0  0  0  0  0  0  0  0  0  0
   51.1106    7.0254  -21.0786 H   0  0  0  0  0  0  0  0  0  0  0  0
   50.7545    4.7437  -21.0085 H   0  0  0  0  0  0  0  0  0  0  0  0
   49.8437    4.5212  -23.1037 H   0  0  0  0  0  0  0  0  0  0  0  0
   51.2055    5.9972  -24.1852 H   0  0  0  0  0  0  0  0  0  0  0  0
   53.1677    5.5035  -23.0794 H   0  0  0  0  0  0  0  0  0  0  0  0
   52.8625    3.1932  -22.9321 H   0  0  0  0  0  0  0  0  0  0  0  0
   51.9472    2.8904  -25.0880 H   0  0  0  0  0  0  0  0  0  0  0  0
   53.3187    4.3701  -26.1926 H   0  0  0  0  0  0  0  0  0  0  0  0
   55.2598    3.8810  -25.1189 H   0  0  0  0  0  0  0  0  0  0  0  0
   54.9712    1.6283  -24.9431 H   0  0  0  0  0  0  0  0  0  0  0  0
   54.0311    1.3011  -27.0080 H   0  0  0  0  0  0  0  0  0  0  0  0
   55.3263    2.7893  -28.1564 H   0  0  0  0  0  0  0  0  0  0  0  0
   57.3020    2.3347  -27.0989 H   0  0  0  0  0  0  0  0  0  0  0  0
   57.0640    0.0539  -26.8975 H   0  0  0  0  0  0  0  0  0  0  0  0
   56.1006   -0.3497  -28.9615 H   0  0  0  0  0  0  0  0  0  0  0  0
   57.3846    1.1395  -30.1930 H   0  0  0  0  0  0  0  0  0  0  0  0
   59.4160    0.7272  -29.1096 H   0  0  0  0  0  0  0  0  0  0  0  0
   59.1573   -1.6288  -28.8134 H   0  0  0  0  0  0  0  0  0  0  0  0
   60.6830   -1.2239  -29.5881 H   0  0  0  0  0  0  0  0  0  0  0  0
   58.1983   -1.9987  -30.9642 H   0  0  0  0  0  0  0  0  0  0  0  0
   60.9172   -1.4873  -31.9784 H   0  0  0  0  0  0  0  0  0  0  0  0
   59.4975   -0.4587  -32.2525 H   0  0  0  0  0  0  0  0  0  0  0  0
   58.3426   -2.3298  -33.3861 H   0  0  0  0  0  0  0  0  0  0  0  0
   59.7635   -3.3611  -33.1253 H   0  0  0  0  0  0  0  0  0  0  0  0
   61.1552   -1.7707  -34.4328 H   0  0  0  0  0  0  0  0  0  0  0  0
   59.7358   -0.7409  -34.6927 H   0  0  0  0  0  0  0  0  0  0  0  0
   58.5835   -2.6196  -35.8391 H   0  0  0  0  0  0  0  0  0  0  0  0
   60.0046   -3.6480  -35.5806 H   0  0  0  0  0  0  0  0  0  0  0  0
   61.3936   -2.0573  -36.8881 H   0  0  0  0  0  0  0  0  0  0  0  0
   59.9726   -1.0289  -37.1466 H   0  0  0  0  0  0  0  0  0  0  0  0
   58.8214   -2.9076  -38.2930 H   0  0  0  0  0  0  0  0  0  0  0  0
   60.2425   -3.9361  -38.0346 H   0  0  0  0  0  0  0  0  0  0  0  0
   61.6317   -2.3467  -39.3425 H   0  0  0  0  0  0  0  0  0  0  0  0
   60.2116   -1.3163  -39.5997 H   0  0  0  0  0  0  0  0  0  0  0  0
   59.0578   -3.1941  -40.7457 H   0  0  0  0  0  0  0  0  0  0  0  0
   60.4789   -4.2228  -40.4900 H   0  0  0  0  0  0  0  0  0  0  0  0
   61.8663   -2.6327  -41.8029 H   0  0  0  0  0  0  0  0  0  0  0  0
   60.4448   -1.6038  -42.0586 H   0  0  0  0  0  0  0  0  0  0  0  0
   60.7184   -4.5077  -42.9548 H   0  0  0  0  0  0  0  0  0  0  0  0
   60.8333   -3.0785  -44.0035 H   0  0  0  0  0  0  0  0  0  0  0  0
   59.2942   -3.4769  -43.2110 H   0  0  0  0  0  0  0  0  0  0  0  0
  1  2  2  0  0  0  0
  1 81  1  0  0  0  0
  2  3  1  0  0  0  0
  2 82  1  0  0  0  0
  3  4  1  0  0  0  0
  3 83  1  0  0  0  0
  3 84  1  0  0  0  0
  4  5  1  0  0  0  0
  4 85  1  0  0  0  0
  5  6  1  0  0  0  0
  5 86  1  0  0  0  0
  6  7  1  0  0  0  0
  6 87  1  0  0  0  0
  7  8  1  0  0  0  0
  7 88  1  0  0  0  0
  8  9  1  0  0  0  0
  8 89  1  0  0  0  0
  9 10  1  0  0  0  0
  9 90  1  0  0  0  0
 10 11  1  0  0  0  0
 10 91  1  0  0  0  0
 11 12  1  0  0  0  0
 11 92  1  0  0  0  0
 12 13  1  0  0  0  0
 12 93  1  0  0  0  0
 13 14  1  0  0  0  0
 13 94  1  0  0  0  0
 14 15  1  0  0  0  0
 14 95  1  0  0  0  0
 15 16  1  0  0  0  0
 15 96  1  0  0  0  0
 16 17  1  0  0  0  0
 16 97  1  0  0  0  0
 17 18  1  0  0  0  0
 17 98  1  0  0  0  0
 18 19  1  0  0  0  0
 18 99  1  0  0  0  0
 19 20  1  0  0  0  0
 19100  1  0  0  0  0
 20 21  1  0  0  0  0
 20101  1  0  0  0  0
 21 22  1  0  0  0  0
 21102  1  0  0  0  0
 22 23  1  0  0  0  0
 22103  1  0  0  0  0
 23 24  1  0  0  0  0
 23104  1  0  0  0  0
 24 25  1  0  0  0  0
 24105  1  0  0  0  0
 25 26  1  0  0  0  0
 25106  1  0  0  0  0
 26 27  1  0  0  0  0
 26107  1  0  0  0  0
 27 28  1  0  0  0  0
 27108  1  0  0  0  0
 28 29  1  0  0  0  0
 28109  1  0  0  0  0
 29 30  1  0  0  0  0
 29110  1  0  0  0  0
 30 31  1  0  0  0  0
 30111  1  0  0  0  0
 31 32  1  0  0  0  0
 31112  1  0  0  0  0
 32 33  1  0  0  0  0
 32113  1  0  0  0  0
 33 34  1  0  0  0  0
 33114  1  0  0  0  0
 34 35  1  0  0  0  0
 34115  1  0  0  0  0
 35 36  1  0  0  0  0
 35116  1  0  0  0  0
 36 37  1  0  0  0  0
 36117  1  0  0  0  0
 37 38  1  0  0  0  0
 37118  1  0  0  0  0
 38 39  1  0  0  0  0
 38119  1  0  0  0  0
 39 40  1  0  0  0  0
 39120  1  0  0  0  0
 40 41  1  0  0  0  0
 40121  1  0  0  0  0
 41 42  1  0  0  0  0
 41122  1  0  0  0  0
 42 43  1  0  0  0  0
 42123  1  0  0  0  0
 43 44  1  0  0  0  0
 43124  1  0  0  0  0
 44 45  1  0  0  0  0
 44125  1  0  0  0  0
 45 46  1  0  0  0  0
 45126  1  0  0  0  0
 46 47  1  0  0  0  0
 46127  1  0  0  0  0
 47 48  1  0  0  0  0
 47128  1  0  0  0  0
 48 49  1  0  0  0  0
 48129  1  0  0  0  0
 49 50  1  0  0  0  0
 49130  1  0  0  0  0
 50 51  1  0  0  0  0
 50131  1  0  0  0  0
 51 52  1  0  0  0  0
 51132  1  0  0  0  0
 52 53  1  0  0  0  0
 52133  1  0  0  0  0
 53 54  1  0  0  0  0
 53134  1  0  0  0  0
 54 55  1  0  0  0  0
 54135  1  0  0  0  0
 55 56  1  0  0  0  0
 55136  1  0  0  0  0
 56 57  1  0  0  0  0
 56137  1  0  0  0  0
 57 58  1  0  0  0  0
 57138  1  0  0  0  0
 58 59  1  0  0  0  0
 58139  1  0  0  0  0
 59 60  1  0  0  0  0
 59140  1  0  0  0  0
 60 61  1  0  0  0  0
 60141  1  0  0  0  0
 61 62  1  0  0  0  0
 61142  1  0  0  0  0
 62 63  1  0  0  0  0
 62143  1  0  0  0  0
 63 64  1  0  0  0  0
 63144  1  0  0  0  0
 64 65  1  0  0  0  0
 64145  1  0  0  0  0
 65 66  1  0  0  0  0
 65146  1  0  0  0  0
 66 67  1  0  0  0  0
 66147  1  0  0  0  0
 67 68  1  0  0  0  0
 67148  1  0  0  0  0
 68 69  1  0  0  0  0
 68149  1  0  0  0  0
 69 70  1  0  0  0  0
 69150  1  0  0  0  0
 69151  1  0  0  0  0
 70 71  1  0  0  0  0
 70152  1  0  0  0  0
 71 72  1  0  0  0  0
 71153  1  0  0  0  0
 71154  1  0  0  0  0
 72 73  1  0  0  0  0
 72155  1  0  0  0  0
 72156  1  0  0  0  0
 73 74  1  0  0  0  0
 73157  1  0  0  0  0
 73158  1  0  0  0  0
 74 75  1  0  0  0  0
 74159  1  0  0  0  0
 74160  1  0  0  0  0
 75 76  1  0  0  0  0
 75161  1  0  0  0  0
 75162  1  0  0  0  0
 76 77  1  0  0  0  0
 76163  1  0  0  0  0
 76164  1  0  0  0  0
 77 78  1  0  0  0  0
 77165  1  0  0  0  0
 77166  1  0  0  0  0
 78 79  1  0  0  0  0
 78167  1  0  0  0  0
 78168  1  0  0  0  0
 79 80  1  0  0  0  0
 79169  1  0  0  0  0
 79170  1  0  0  0  0
 80171  1  0  0  0  0
 80172  1  0  0  0  0
 80173  1  0  0  0  0
M  END
$$$$
