
 OpenBabel04232216593D

216215  0  0  0  0  0  0  0  0999 V2000
   10.2903   -1.8551    1.9318 O   0  0  0  0  0  0  0  0  0  0  0  0
   10.5387   -3.0209    1.7061 C   0  0  0  0  0  0  0  0  0  0  0  0
   11.0337   -3.9582    2.7729 C   0  0  0  0  0  0  0  0  0  0  0  0
   10.4091   -3.6204    0.4794 O   0  0  0  0  0  0  0  0  0  0  0  0
    9.9102   -2.5765   -0.4085 O   0  0  0  0  0  0  0  0  0  0  0  0
    8.4571   -2.5632   -0.4057 O   0  0  0  0  0  0  0  0  0  0  0  0
    7.9612   -1.5451   -1.2951 O   0  0  0  0  0  0  0  0  0  0  0  0
    8.4020   -1.8300   -2.6285 O   0  0  0  0  0  0  0  0  0  0  0  0
    7.9099   -0.8267   -3.5283 O   0  0  0  0  0  0  0  0  0  0  0  0
    8.3831   -1.1168   -4.8505 O   0  0  0  0  0  0  0  0  0  0  0  0
    9.8189   -1.1089   -4.8363 O   0  0  0  0  0  0  0  0  0  0  0  0
   10.1803   -1.4113   -6.1608 C   0  0  0  0  0  0  0  0  0  0  0  0
   11.6809   -1.4065   -6.1645 C   0  0  0  0  0  0  0  0  0  0  0  0
   12.1754   -1.7164   -7.5507 C   0  0  0  0  0  0  0  0  0  0  0  0
   13.6844   -1.7052   -7.5376 C   0  0  0  0  0  0  0  0  0  0  0  0
   14.1858   -2.0159   -8.9272 C   0  0  0  0  0  0  0  0  0  0  0  0
   15.6966   -2.0087   -8.9231 C   0  0  0  0  0  0  0  0  0  0  0  0
   16.1991   -2.3219  -10.3146 C   0  0  0  0  0  0  0  0  0  0  0  0
   17.7124   -2.3140  -10.3166 C   0  0  0  0  0  0  0  0  0  0  0  0
   18.2182   -2.6254  -11.7095 C   0  0  0  0  0  0  0  0  0  0  0  0
   19.7331   -2.6200  -11.7133 C   0  0  0  0  0  0  0  0  0  0  0  0
   20.2413   -2.9335  -13.1062 C   0  0  0  0  0  0  0  0  0  0  0  0
   21.7571   -2.9303  -13.1108 C   0  0  0  0  0  0  0  0  0  0  0  0
   22.2664   -3.2419  -14.5045 C   0  0  0  0  0  0  0  0  0  0  0  0
   23.7827   -3.2369  -14.5101 C   0  0  0  0  0  0  0  0  0  0  0  0
   24.2924   -3.5485  -15.9039 C   0  0  0  0  0  0  0  0  0  0  0  0
   25.8089   -3.5455  -15.9093 C   0  0  0  0  0  0  0  0  0  0  0  0
   26.3189   -3.8571  -17.3032 C   0  0  0  0  0  0  0  0  0  0  0  0
   27.8355   -3.8542  -17.3087 C   0  0  0  0  0  0  0  0  0  0  0  0
   28.3455   -4.1658  -18.7026 C   0  0  0  0  0  0  0  0  0  0  0  0
   29.8621   -4.1648  -18.7076 C   0  0  0  0  0  0  0  0  0  0  0  0
   30.3721   -4.4764  -20.1015 C   0  0  0  0  0  0  0  0  0  0  0  0
   31.8887   -4.4755  -20.1066 C   0  0  0  0  0  0  0  0  0  0  0  0
   32.3988   -4.7871  -21.5005 C   0  0  0  0  0  0  0  0  0  0  0  0
   33.9154   -4.7881  -21.5052 C   0  0  0  0  0  0  0  0  0  0  0  0
   34.4254   -5.0977  -22.8995 C   0  0  0  0  0  0  0  0  0  0  0  0
   35.9420   -5.0968  -22.9046 C   0  0  0  0  0  0  0  0  0  0  0  0
   36.4521   -5.4044  -24.2994 C   0  0  0  0  0  0  0  0  0  0  0  0
   37.9687   -5.4054  -24.3040 C   0  0  0  0  0  0  0  0  0  0  0  0
   38.4787   -5.7111  -25.6993 C   0  0  0  0  0  0  0  0  0  0  0  0
   39.9954   -5.7121  -25.7039 C   0  0  0  0  0  0  0  0  0  0  0  0
   40.5054   -6.0178  -27.0991 C   0  0  0  0  0  0  0  0  0  0  0  0
   42.0220   -6.0189  -27.1038 C   0  0  0  0  0  0  0  0  0  0  0  0
   42.5321   -6.3245  -28.4990 C   0  0  0  0  0  0  0  0  0  0  0  0
   44.0488   -6.3255  -28.5037 C   0  0  0  0  0  0  0  0  0  0  0  0
   44.5589   -6.6313  -29.8988 C   0  0  0  0  0  0  0  0  0  0  0  0
   46.0757   -6.6307  -29.9036 C   0  0  0  0  0  0  0  0  0  0  0  0
   46.5854   -6.9380  -31.2987 C   0  0  0  0  0  0  0  0  0  0  0  0
   48.1020   -6.9409  -31.3029 C   0  0  0  0  0  0  0  0  0  0  0  0
   48.6120   -7.2446  -32.6985 C   0  0  0  0  0  0  0  0  0  0  0  0
   50.1285   -7.2496  -32.7024 C   0  0  0  0  0  0  0  0  0  0  0  0
   50.6382   -7.5537  -34.0981 C   0  0  0  0  0  0  0  0  0  0  0  0
   52.1549   -7.5602  -34.1015 C   0  0  0  0  0  0  0  0  0  0  0  0
   52.6650   -7.8659  -35.4967 C   0  0  0  0  0  0  0  0  0  0  0  0
   54.1816   -7.8708  -35.5003 C   0  0  0  0  0  0  0  0  0  0  0  0
   54.6916   -8.1765  -36.8954 C   0  0  0  0  0  0  0  0  0  0  0  0
   56.2081   -8.1834  -36.8986 C   0  0  0  0  0  0  0  0  0  0  0  0
   56.7181   -8.4892  -38.2937 C   0  0  0  0  0  0  0  0  0  0  0  0
   58.2347   -8.4962  -38.2962 C   0  0  0  0  0  0  0  0  0  0  0  0
   58.7443   -8.8014  -39.6917 C   0  0  0  0  0  0  0  0  0  0  0  0
   60.2610   -8.8086  -39.6955 C   0  0  0  0  0  0  0  0  0  0  0  0
   60.7713   -9.1143  -41.0908 C   0  0  0  0  0  0  0  0  0  0  0  0
   62.2881   -9.1213  -41.0946 C   0  0  0  0  0  0  0  0  0  0  0  0
   62.7982   -9.4270  -42.4899 C   0  0  0  0  0  0  0  0  0  0  0  0
   64.3149   -9.4340  -42.4933 C   0  0  0  0  0  0  0  0  0  0  0  0
   64.8250   -9.7396  -43.8886 C   0  0  0  0  0  0  0  0  0  0  0  0
   66.3417   -9.7486  -43.8916 C   0  0  0  0  0  0  0  0  0  0  0  0
   66.8518  -10.0543  -45.2869 C   0  0  0  0  0  0  0  0  0  0  0  0
   68.3686  -10.0633  -45.2901 C   0  0  0  0  0  0  0  0  0  0  0  0
   68.8789  -10.3690  -46.6857 C   0  0  0  0  0  0  0  0  0  0  0  0
   70.3961  -10.3781  -46.6894 C   0  0  0  0  0  0  0  0  0  0  0  0
   70.9088  -10.6839  -48.0850 C   0  0  0  0  0  0  0  0  0  0  0  0
   72.4273  -10.6908  -48.0881 C   0  0  0  0  0  0  0  0  0  0  0  0
   72.9453  -10.9964  -49.4829 C   0  0  0  0  0  0  0  0  0  0  0  0
   74.4664  -11.0040  -49.4892 C   0  0  0  0  0  0  0  0  0  0  0  0
   74.9840  -11.3083  -50.8877 C   0  0  0  0  0  0  0  0  0  0  0  0
   76.5070  -11.3178  -50.9119 C   0  0  0  0  0  0  0  0  0  0  0  0
   77.0193  -11.6215  -52.3076 C   0  0  0  0  0  0  0  0  0  0  0  0
   11.1110   -3.3856    3.7048 H   0  0  0  0  0  0  0  0  0  0  0  0
   12.0333   -4.3399    2.5426 H   0  0  0  0  0  0  0  0  0  0  0  0
   10.3309   -4.7778    2.9529 H   0  0  0  0  0  0  0  0  0  0  0  0
    9.7771   -0.6480   -6.8349 H   0  0  0  0  0  0  0  0  0  0  0  0
    9.7840   -2.3931   -6.4440 H   0  0  0  0  0  0  0  0  0  0  0  0
   12.0569   -2.1399   -5.4392 H   0  0  0  0  0  0  0  0  0  0  0  0
   12.0499   -0.4302   -5.8239 H   0  0  0  0  0  0  0  0  0  0  0  0
   11.7946   -0.9729   -8.2618 H   0  0  0  0  0  0  0  0  0  0  0  0
   11.8040   -2.6971   -7.8729 H   0  0  0  0  0  0  0  0  0  0  0  0
   14.0608   -2.4473   -6.8222 H   0  0  0  0  0  0  0  0  0  0  0  0
   14.0515   -0.7240   -7.2109 H   0  0  0  0  0  0  0  0  0  0  0  0
   13.8051   -1.2718   -9.6380 H   0  0  0  0  0  0  0  0  0  0  0  0
   13.8122   -2.9956   -9.2500 H   0  0  0  0  0  0  0  0  0  0  0  0
   16.0735   -2.7510   -8.2084 H   0  0  0  0  0  0  0  0  0  0  0  0
   16.0663   -1.0279   -8.5986 H   0  0  0  0  0  0  0  0  0  0  0  0
   15.8167   -1.5799  -11.0268 H   0  0  0  0  0  0  0  0  0  0  0  0
   15.8261   -3.3025  -10.6357 H   0  0  0  0  0  0  0  0  0  0  0  0
   18.0912   -3.0565   -9.6033 H   0  0  0  0  0  0  0  0  0  0  0  0
   18.0819   -1.3334   -9.9920 H   0  0  0  0  0  0  0  0  0  0  0  0
   17.8377   -1.8818  -12.4207 H   0  0  0  0  0  0  0  0  0  0  0  0
   17.8447   -3.6050  -12.0329 H   0  0  0  0  0  0  0  0  0  0  0  0
   20.1116   -3.3623  -10.9997 H   0  0  0  0  0  0  0  0  0  0  0  0
   20.1045   -1.6398  -11.3898 H   0  0  0  0  0  0  0  0  0  0  0  0
   19.8625   -2.1902  -13.8186 H   0  0  0  0  0  0  0  0  0  0  0  0
   19.8673   -3.9129  -13.4293 H   0  0  0  0  0  0  0  0  0  0  0  0
   22.1349   -3.6745  -12.3987 H   0  0  0  0  0  0  0  0  0  0  0  0
   22.1301   -1.9513  -12.7857 H   0  0  0  0  0  0  0  0  0  0  0  0
   21.8868   -2.4985  -15.2163 H   0  0  0  0  0  0  0  0  0  0  0  0
   21.8938   -4.2215  -14.8286 H   0  0  0  0  0  0  0  0  0  0  0  0
   24.1618   -3.9803  -13.7979 H   0  0  0  0  0  0  0  0  0  0  0  0
   24.1548   -2.2573  -14.1857 H   0  0  0  0  0  0  0  0  0  0  0  0
   23.9141   -2.8043  -16.6156 H   0  0  0  0  0  0  0  0  0  0  0  0
   23.9189   -4.5275  -16.2287 H   0  0  0  0  0  0  0  0  0  0  0  0
   26.1870   -4.2897  -15.1975 H   0  0  0  0  0  0  0  0  0  0  0  0
   26.1823   -2.5665  -15.5844 H   0  0  0  0  0  0  0  0  0  0  0  0
   25.9407   -3.1130  -18.0149 H   0  0  0  0  0  0  0  0  0  0  0  0
   25.9454   -4.8361  -17.6280 H   0  0  0  0  0  0  0  0  0  0  0  0
   28.2136   -4.5984  -16.5969 H   0  0  0  0  0  0  0  0  0  0  0  0
   28.2089   -2.8752  -16.9838 H   0  0  0  0  0  0  0  0  0  0  0  0
   27.9684   -3.4208  -19.4141 H   0  0  0  0  0  0  0  0  0  0  0  0
   27.9709   -5.1442  -19.0280 H   0  0  0  0  0  0  0  0  0  0  0  0
   30.2390   -4.9098  -17.9961 H   0  0  0  0  0  0  0  0  0  0  0  0
   30.2367   -3.1865  -18.3822 H   0  0  0  0  0  0  0  0  0  0  0  0
   29.9951   -3.7314  -20.8131 H   0  0  0  0  0  0  0  0  0  0  0  0
   29.9975   -5.4548  -20.4270 H   0  0  0  0  0  0  0  0  0  0  0  0
   32.2657   -5.2205  -19.3951 H   0  0  0  0  0  0  0  0  0  0  0  0
   32.2633   -3.4971  -19.7812 H   0  0  0  0  0  0  0  0  0  0  0  0
   32.0229   -4.0412  -22.2118 H   0  0  0  0  0  0  0  0  0  0  0  0
   32.0230   -5.7648  -21.8266 H   0  0  0  0  0  0  0  0  0  0  0  0
   34.2912   -5.5349  -20.7949 H   0  0  0  0  0  0  0  0  0  0  0  0
   34.2912   -3.8108  -21.1778 H   0  0  0  0  0  0  0  0  0  0  0  0
   34.0485   -4.3517  -23.6100 H   0  0  0  0  0  0  0  0  0  0  0  0
   34.0508   -6.0756  -23.2264 H   0  0  0  0  0  0  0  0  0  0  0  0
   36.3190   -5.8438  -22.1951 H   0  0  0  0  0  0  0  0  0  0  0  0
   36.3167   -4.1193  -22.5764 H   0  0  0  0  0  0  0  0  0  0  0  0
   36.0762   -4.6566  -25.0085 H   0  0  0  0  0  0  0  0  0  0  0  0
   36.0763   -6.3812  -24.6282 H   0  0  0  0  0  0  0  0  0  0  0  0
   38.3445   -6.1543  -23.5959 H   0  0  0  0  0  0  0  0  0  0  0  0
   38.3445   -4.4291  -23.9739 H   0  0  0  0  0  0  0  0  0  0  0  0
   38.1029   -4.9623  -26.4074 H   0  0  0  0  0  0  0  0  0  0  0  0
   38.1029   -6.6874  -26.0294 H   0  0  0  0  0  0  0  0  0  0  0  0
   40.3712   -6.4610  -24.9958 H   0  0  0  0  0  0  0  0  0  0  0  0
   40.3712   -4.7358  -25.3738 H   0  0  0  0  0  0  0  0  0  0  0  0
   40.1296   -5.2690  -27.8072 H   0  0  0  0  0  0  0  0  0  0  0  0
   40.1296   -6.9941  -27.4293 H   0  0  0  0  0  0  0  0  0  0  0  0
   42.3978   -6.7677  -26.3957 H   0  0  0  0  0  0  0  0  0  0  0  0
   42.3978   -5.0425  -26.7736 H   0  0  0  0  0  0  0  0  0  0  0  0
   42.1563   -5.5757  -29.2071 H   0  0  0  0  0  0  0  0  0  0  0  0
   42.1563   -7.3008  -28.8292 H   0  0  0  0  0  0  0  0  0  0  0  0
   44.4245   -7.0744  -27.7955 H   0  0  0  0  0  0  0  0  0  0  0  0
   44.4245   -5.3492  -28.1735 H   0  0  0  0  0  0  0  0  0  0  0  0
   44.1818   -5.8835  -30.6072 H   0  0  0  0  0  0  0  0  0  0  0  0
   44.1843   -7.6083  -30.2283 H   0  0  0  0  0  0  0  0  0  0  0  0
   46.4529   -7.3769  -29.1940 H   0  0  0  0  0  0  0  0  0  0  0  0
   46.4499   -5.6527  -29.5760 H   0  0  0  0  0  0  0  0  0  0  0  0
   46.2106   -6.1896  -32.0077 H   0  0  0  0  0  0  0  0  0  0  0  0
   46.2085   -7.9142  -31.6279 H   0  0  0  0  0  0  0  0  0  0  0  0
   48.4766   -7.6915  -30.5961 H   0  0  0  0  0  0  0  0  0  0  0  0
   48.4790   -5.9657  -30.9709 H   0  0  0  0  0  0  0  0  0  0  0  0
   48.2385   -6.4931  -33.4051 H   0  0  0  0  0  0  0  0  0  0  0  0
   48.2338   -8.2192  -33.0312 H   0  0  0  0  0  0  0  0  0  0  0  0
   50.5022   -8.0010  -31.9958 H   0  0  0  0  0  0  0  0  0  0  0  0
   50.5068   -6.2750  -32.3700 H   0  0  0  0  0  0  0  0  0  0  0  0
   50.2651   -6.8022  -34.8047 H   0  0  0  0  0  0  0  0  0  0  0  0
   50.2594   -8.5280  -34.4307 H   0  0  0  0  0  0  0  0  0  0  0  0
   52.5273   -8.3114  -33.3940 H   0  0  0  0  0  0  0  0  0  0  0  0
   52.5342   -6.5858  -33.7695 H   0  0  0  0  0  0  0  0  0  0  0  0
   52.2914   -7.1157  -36.2045 H   0  0  0  0  0  0  0  0  0  0  0  0
   52.2871   -8.8411  -35.8280 H   0  0  0  0  0  0  0  0  0  0  0  0
   54.5553   -8.6211  -34.7925 H   0  0  0  0  0  0  0  0  0  0  0  0
   54.5598   -6.8958  -35.1691 H   0  0  0  0  0  0  0  0  0  0  0  0
   54.3196   -7.4252  -37.6029 H   0  0  0  0  0  0  0  0  0  0  0  0
   54.3124   -9.1509  -37.2274 H   0  0  0  0  0  0  0  0  0  0  0  0
   56.5805   -8.9347  -36.1914 H   0  0  0  0  0  0  0  0  0  0  0  0
   56.5877   -7.2090  -36.5670 H   0  0  0  0  0  0  0  0  0  0  0  0
   56.3453   -7.7385  -39.0015 H   0  0  0  0  0  0  0  0  0  0  0  0
   56.3390   -9.4638  -38.6253 H   0  0  0  0  0  0  0  0  0  0  0  0
   58.6066   -9.2484  -37.5897 H   0  0  0  0  0  0  0  0  0  0  0  0
   58.6153   -7.5231  -37.9614 H   0  0  0  0  0  0  0  0  0  0  0  0
   58.3711   -8.0504  -40.3992 H   0  0  0  0  0  0  0  0  0  0  0  0
   58.3650   -9.7758  -40.0236 H   0  0  0  0  0  0  0  0  0  0  0  0
   60.6330   -9.5602  -38.9879 H   0  0  0  0  0  0  0  0  0  0  0  0
   60.6408   -7.8345  -39.3636 H   0  0  0  0  0  0  0  0  0  0  0  0
   60.3993   -8.3629  -41.7982 H   0  0  0  0  0  0  0  0  0  0  0  0
   60.3921  -10.0885  -41.4231 H   0  0  0  0  0  0  0  0  0  0  0  0
   62.6605   -9.8726  -40.3874 H   0  0  0  0  0  0  0  0  0  0  0  0
   62.6676   -8.1470  -40.7630 H   0  0  0  0  0  0  0  0  0  0  0  0
   62.4261   -8.6757  -43.1974 H   0  0  0  0  0  0  0  0  0  0  0  0
   62.4190  -10.4014  -42.8219 H   0  0  0  0  0  0  0  0  0  0  0  0
   64.6872  -10.1853  -41.7860 H   0  0  0  0  0  0  0  0  0  0  0  0
   64.6943   -8.4596  -42.1615 H   0  0  0  0  0  0  0  0  0  0  0  0
   64.4539   -8.9875  -44.5957 H   0  0  0  0  0  0  0  0  0  0  0  0
   64.4445  -10.7134  -44.2210 H   0  0  0  0  0  0  0  0  0  0  0  0
   66.7127  -10.5007  -43.1844 H   0  0  0  0  0  0  0  0  0  0  0  0
   66.7221   -8.7748  -43.5591 H   0  0  0  0  0  0  0  0  0  0  0  0
   66.4805   -9.3021  -45.9939 H   0  0  0  0  0  0  0  0  0  0  0  0
   66.4711  -11.0280  -45.6192 H   0  0  0  0  0  0  0  0  0  0  0  0
   68.7394  -10.8153  -44.5829 H   0  0  0  0  0  0  0  0  0  0  0  0
   68.7489   -9.0895  -44.9575 H   0  0  0  0  0  0  0  0  0  0  0  0
   68.5074   -9.6168  -47.3925 H   0  0  0  0  0  0  0  0  0  0  0  0
   68.4980  -11.3427  -47.0178 H   0  0  0  0  0  0  0  0  0  0  0  0
   70.7664  -11.1300  -45.9817 H   0  0  0  0  0  0  0  0  0  0  0  0
   70.7758   -9.4043  -46.3563 H   0  0  0  0  0  0  0  0  0  0  0  0
   70.5360   -9.9325  -48.7920 H   0  0  0  0  0  0  0  0  0  0  0  0
   70.5289  -11.6581  -48.4164 H   0  0  0  0  0  0  0  0  0  0  0  0
   72.7970  -11.4416  -47.3791 H   0  0  0  0  0  0  0  0  0  0  0  0
   72.8041   -9.7161  -47.7546 H   0  0  0  0  0  0  0  0  0  0  0  0
   72.5719  -10.2452  -50.1899 H   0  0  0  0  0  0  0  0  0  0  0  0
   72.5649  -11.9705  -49.8145 H   0  0  0  0  0  0  0  0  0  0  0  0
   74.8358  -11.7557  -48.7810 H   0  0  0  0  0  0  0  0  0  0  0  0
   74.8428  -10.0298  -49.1540 H   0  0  0  0  0  0  0  0  0  0  0  0
   74.6050  -10.5566  -51.5909 H   0  0  0  0  0  0  0  0  0  0  0  0
   74.6002  -12.2817  -51.2172 H   0  0  0  0  0  0  0  0  0  0  0  0
   76.8864  -12.0703  -50.2109 H   0  0  0  0  0  0  0  0  0  0  0  0
   76.8911  -10.3446  -50.5848 H   0  0  0  0  0  0  0  0  0  0  0  0
   76.6679  -12.6015  -52.6460 H   0  0  0  0  0  0  0  0  0  0  0  0
   78.1127  -11.6265  -52.3168 H   0  0  0  0  0  0  0  0  0  0  0  0
   76.6727  -10.8675  -53.0216 H   0  0  0  0  0  0  0  0  0  0  0  0
  1  2  2  0  0  0  0
  2  3  1  0  0  0  0
  2  4  1  0  0  0  0
  3 79  1  0  0  0  0
  3 80  1  0  0  0  0
  3 81  1  0  0  0  0
  4  5  1  0  0  0  0
  5  6  1  0  0  0  0
  6  7  1  0  0  0  0
  7  8  1  0  0  0  0
  8  9  1  0  0  0  0
  9 10  1  0  0  0  0
 10 11  1  0  0  0  0
 11 12  1  0  0  0  0
 12 13  1  0  0  0  0
 12 82  1  0  0  0  0
 12 83  1  0  0  0  0
 13 14  1  0  0  0  0
 13 84  1  0  0  0  0
 13 85  1  0  0  0  0
 14 15  1  0  0  0  0
 14 86  1  0  0  0  0
 14 87  1  0  0  0  0
 15 16  1  0  0  0  0
 15 88  1  0  0  0  0
 15 89  1  0  0  0  0
 16 17  1  0  0  0  0
 16 90  1  0  0  0  0
 16 91  1  0  0  0  0
 17 18  1  0  0  0  0
 17 92  1  0  0  0  0
 17 93  1  0  0  0  0
 18 19  1  0  0  0  0
 18 94  1  0  0  0  0
 18 95  1  0  0  0  0
 19 20  1  0  0  0  0
 19 96  1  0  0  0  0
 19 97  1  0  0  0  0
 20 21  1  0  0  0  0
 20 98  1  0  0  0  0
 20 99  1  0  0  0  0
 21 22  1  0  0  0  0
 21100  1  0  0  0  0
 21101  1  0  0  0  0
 22 23  1  0  0  0  0
 22102  1  0  0  0  0
 22103  1  0  0  0  0
 23 24  1  0  0  0  0
 23104  1  0  0  0  0
 23105  1  0  0  0  0
 24 25  1  0  0  0  0
 24106  1  0  0  0  0
 24107  1  0  0  0  0
 25 26  1  0  0  0  0
 25108  1  0  0  0  0
 25109  1  0  0  0  0
 26 27  1  0  0  0  0
 26110  1  0  0  0  0
 26111  1  0  0  0  0
 27 28  1  0  0  0  0
 27112  1  0  0  0  0
 27113  1  0  0  0  0
 28 29  1  0  0  0  0
 28114  1  0  0  0  0
 28115  1  0  0  0  0
 29 30  1  0  0  0  0
 29116  1  0  0  0  0
 29117  1  0  0  0  0
 30 31  1  0  0  0  0
 30118  1  0  0  0  0
 30119  1  0  0  0  0
 31 32  1  0  0  0  0
 31120  1  0  0  0  0
 31121  1  0  0  0  0
 32 33  1  0  0  0  0
 32122  1  0  0  0  0
 32123  1  0  0  0  0
 33 34  1  0  0  0  0
 33124  1  0  0  0  0
 33125  1  0  0  0  0
 34 35  1  0  0  0  0
 34126  1  0  0  0  0
 34127  1  0  0  0  0
 35 36  1  0  0  0  0
 35128  1  0  0  0  0
 35129  1  0  0  0  0
 36 37  1  0  0  0  0
 36130  1  0  0  0  0
 36131  1  0  0  0  0
 37 38  1  0  0  0  0
 37132  1  0  0  0  0
 37133  1  0  0  0  0
 38 39  1  0  0  0  0
 38134  1  0  0  0  0
 38135  1  0  0  0  0
 39 40  1  0  0  0  0
 39136  1  0  0  0  0
 39137  1  0  0  0  0
 40 41  1  0  0  0  0
 40138  1  0  0  0  0
 40139  1  0  0  0  0
 41 42  1  0  0  0  0
 41140  1  0  0  0  0
 41141  1  0  0  0  0
 42 43  1  0  0  0  0
 42142  1  0  0  0  0
 42143  1  0  0  0  0
 43 44  1  0  0  0  0
 43144  1  0  0  0  0
 43145  1  0  0  0  0
 44 45  1  0  0  0  0
 44146  1  0  0  0  0
 44147  1  0  0  0  0
 45 46  1  0  0  0  0
 45148  1  0  0  0  0
 45149  1  0  0  0  0
 46 47  1  0  0  0  0
 46150  1  0  0  0  0
 46151  1  0  0  0  0
 47 48  1  0  0  0  0
 47152  1  0  0  0  0
 47153  1  0  0  0  0
 48 49  1  0  0  0  0
 48154  1  0  0  0  0
 48155  1  0  0  0  0
 49 50  1  0  0  0  0
 49156  1  0  0  0  0
 49157  1  0  0  0  0
 50 51  1  0  0  0  0
 50158  1  0  0  0  0
 50159  1  0  0  0  0
 51 52  1  0  0  0  0
 51160  1  0  0  0  0
 51161  1  0  0  0  0
 52 53  1  0  0  0  0
 52162  1  0  0  0  0
 52163  1  0  0  0  0
 53 54  1  0  0  0  0
 53164  1  0  0  0  0
 53165  1  0  0  0  0
 54 55  1  0  0  0  0
 54166  1  0  0  0  0
 54167  1  0  0  0  0
 55 56  1  0  0  0  0
 55168  1  0  0  0  0
 55169  1  0  0  0  0
 56 57  1  0  0  0  0
 56170  1  0  0  0  0
 56171  1  0  0  0  0
 57 58  1  0  0  0  0
 57172  1  0  0  0  0
 57173  1  0  0  0  0
 58 59  1  0  0  0  0
 58174  1  0  0  0  0
 58175  1  0  0  0  0
 59 60  1  0  0  0  0
 59176  1  0  0  0  0
 59177  1  0  0  0  0
 60 61  1  0  0  0  0
 60178  1  0  0  0  0
 60179  1  0  0  0  0
 61 62  1  0  0  0  0
 61180  1  0  0  0  0
 61181  1  0  0  0  0
 62 63  1  0  0  0  0
 62182  1  0  0  0  0
 62183  1  0  0  0  0
 63 64  1  0  0  0  0
 63184  1  0  0  0  0
 63185  1  0  0  0  0
 64 65  1  0  0  0  0
 64186  1  0  0  0  0
 64187  1  0  0  0  0
 65 66  1  0  0  0  0
 65188  1  0  0  0  0
 65189  1  0  0  0  0
 66 67  1  0  0  0  0
 66190  1  0  0  0  0
 66191  1  0  0  0  0
 67 68  1  0  0  0  0
 67192  1  0  0  0  0
 67193  1  0  0  0  0
 68 69  1  0  0  0  0
 68194  1  0  0  0  0
 68195  1  0  0  0  0
 69 70  1  0  0  0  0
 69196  1  0  0  0  0
 69197  1  0  0  0  0
 70 71  1  0  0  0  0
 70198  1  0  0  0  0
 70199  1  0  0  0  0
 71 72  1  0  0  0  0
 71200  1  0  0  0  0
 71201  1  0  0  0  0
 72 73  1  0  0  0  0
 72202  1  0  0  0  0
 72203  1  0  0  0  0
 73 74  1  0  0  0  0
 73204  1  0  0  0  0
 73205  1  0  0  0  0
 74 75  1  0  0  0  0
 74206  1  0  0  0  0
 74207  1  0  0  0  0
 75 76  1  0  0  0  0
 75208  1  0  0  0  0
 75209  1  0  0  0  0
 76 77  1  0  0  0  0
 76210  1  0  0  0  0
 76211  1  0  0  0  0
 77 78  1  0  0  0  0
 77212  1  0  0  0  0
 77213  1  0  0  0  0
 78214  1  0  0  0  0
 78215  1  0  0  0  0
 78216  1  0  0  0  0
M  END
$$$$
