
 OpenBabel04232216453D

 61 62  0  0  0  0  0  0  0  0999 V2000
    4.1980   -1.6737   -1.0161 C   0  0  0  0  0  0  0  0  0  0  0  0
    4.8690   -1.7295    0.3569 C   0  0  0  0  0  0  0  0  0  0  0  0
    3.8678   -1.1665    1.3254 C   0  0  0  0  0  0  0  0  0  0  0  0
    4.3931   -0.1071    1.9686 C   0  0  0  0  0  0  0  0  0  0  0  0
    5.0066    0.9847    1.0700 C   0  0  0  0  0  0  0  0  0  0  0  0
    5.1190   -0.5742    3.1768 C   0  0  0  0  0  0  0  0  0  0  0  0
    4.6018   -1.8909    3.8385 C   0  0  0  0  0  0  0  0  0  0  0  0
    4.9276   -2.2009    5.2979 C   0  0  0  0  0  0  0  0  0  0  0  0
    4.1898   -1.3190    6.2973 C   0  0  0  0  0  0  0  0  0  0  0  0
    2.6741   -1.4167    6.1967 C   0  0  0  0  0  0  0  0  0  0  0  0
    6.4383   -0.3670    2.9917 C   0  0  0  0  0  0  0  0  0  0  0  0
    7.2666   -1.5273    2.7402 C   0  0  0  0  0  0  0  0  0  0  0  0
    8.1626   -1.6319    3.7395 C   0  0  0  0  0  0  0  0  0  0  0  0
    8.9921   -2.7988    3.9599 C   0  0  0  0  0  0  0  0  0  0  0  0
    9.7782   -3.0872    2.9095 C   0  0  0  0  0  0  0  0  0  0  0  0
   11.1332   -2.4775    2.7031 C   0  0  0  0  0  0  0  0  0  0  0  0
   12.1648   -2.8986    3.7743 C   0  0  0  0  0  0  0  0  0  0  0  0
   12.6102   -4.3673    3.7176 C   0  0  0  0  0  0  0  0  0  0  0  0
   13.1990   -4.8040    2.3725 C   0  0  0  0  0  0  0  0  0  0  0  0
   14.4356   -3.9915    1.9839 C   0  0  0  0  0  0  0  0  0  0  0  0
   14.9075   -4.3059    0.5662 C   0  0  0  0  0  0  0  0  0  0  0  0
   16.1226   -3.4646    0.2084 C   0  0  0  0  0  0  0  0  0  0  0  0
   15.7841   -2.1485    0.2618 F   0  0  0  0  0  0  0  0  0  0  0  0
    9.0171   -3.7101    1.7914 C   0  0  0  0  0  0  0  0  0  0  0  0
    7.8554   -3.4476    1.2571 N   0  0  0  0  0  0  0  0  0  0  0  0
    6.9932   -2.3989    1.6186 N   0  0  0  0  0  0  0  0  0  0  0  0
    6.0913   -2.1911    0.4826 N   0  0  0  0  0  0  0  0  0  0  0  0
    3.1760   -2.0333   -0.9395 H   0  0  0  0  0  0  0  0  0  0  0  0
    4.7109   -2.2731   -1.7590 H   0  0  0  0  0  0  0  0  0  0  0  0
    4.1495   -0.6171   -1.3506 H   0  0  0  0  0  0  0  0  0  0  0  0
    3.2886   -1.9666    1.7725 H   0  0  0  0  0  0  0  0  0  0  0  0
    4.2635    1.3637    0.3601 H   0  0  0  0  0  0  0  0  0  0  0  0
    5.8449    0.6003    0.4696 H   0  0  0  0  0  0  0  0  0  0  0  0
    5.3818    1.8398    1.6400 H   0  0  0  0  0  0  0  0  0  0  0  0
    4.9604   -2.7524    3.2557 H   0  0  0  0  0  0  0  0  0  0  0  0
    3.5130   -1.9370    3.7526 H   0  0  0  0  0  0  0  0  0  0  0  0
    6.0049   -2.1516    5.4798 H   0  0  0  0  0  0  0  0  0  0  0  0
    4.6410   -3.2463    5.4832 H   0  0  0  0  0  0  0  0  0  0  0  0
    4.5032   -0.2776    6.1725 H   0  0  0  0  0  0  0  0  0  0  0  0
    4.4877   -1.6293    7.3068 H   0  0  0  0  0  0  0  0  0  0  0  0
    2.3016   -1.0351    5.2384 H   0  0  0  0  0  0  0  0  0  0  0  0
    2.2049   -0.8194    6.9836 H   0  0  0  0  0  0  0  0  0  0  0  0
    2.3348   -2.4526    6.3054 H   0  0  0  0  0  0  0  0  0  0  0  0
    6.8586    0.4993    2.4952 H   0  0  0  0  0  0  0  0  0  0  0  0
    8.2584   -0.8607    4.4997 H   0  0  0  0  0  0  0  0  0  0  0  0
    8.2738   -3.5542    4.2782 H   0  0  0  0  0  0  0  0  0  0  0  0
   11.0478   -1.3838    2.7462 H   0  0  0  0  0  0  0  0  0  0  0  0
   11.5097   -2.6989    1.6982 H   0  0  0  0  0  0  0  0  0  0  0  0
   11.7679   -2.6989    4.7782 H   0  0  0  0  0  0  0  0  0  0  0  0
   13.0469   -2.2513    3.6910 H   0  0  0  0  0  0  0  0  0  0  0  0
   11.7615   -5.0160    3.9639 H   0  0  0  0  0  0  0  0  0  0  0  0
   13.3598   -4.5355    4.5026 H   0  0  0  0  0  0  0  0  0  0  0  0
   12.4335   -4.7308    1.5929 H   0  0  0  0  0  0  0  0  0  0  0  0
   13.4709   -5.8652    2.4342 H   0  0  0  0  0  0  0  0  0  0  0  0
   15.2414   -4.1917    2.7003 H   0  0  0  0  0  0  0  0  0  0  0  0
   14.2198   -2.9200    2.0356 H   0  0  0  0  0  0  0  0  0  0  0  0
   14.0981   -4.0795   -0.1374 H   0  0  0  0  0  0  0  0  0  0  0  0
   15.1502   -5.3692    0.4725 H   0  0  0  0  0  0  0  0  0  0  0  0
   16.4629   -3.6812   -0.8072 H   0  0  0  0  0  0  0  0  0  0  0  0
   16.9480   -3.6316    0.9058 H   0  0  0  0  0  0  0  0  0  0  0  0
    9.5540   -4.5701    1.3546 H   0  0  0  0  0  0  0  0  0  0  0  0
  1  2  1  0  0  0  0
  1 28  1  0  0  0  0
  1 29  1  0  0  0  0
  1 30  1  0  0  0  0
  2  3  1  0  0  0  0
  2 27  2  0  0  0  0
  3  4  2  0  0  0  0
  3 31  1  0  0  0  0
  4  5  1  0  0  0  0
  4  6  1  0  0  0  0
  5 32  1  0  0  0  0
  5 33  1  0  0  0  0
  5 34  1  0  0  0  0
  6  7  1  0  0  0  0
  6 11  2  0  0  0  0
  7  8  1  0  0  0  0
  7 35  1  0  0  0  0
  7 36  1  0  0  0  0
  8  9  1  0  0  0  0
  8 37  1  0  0  0  0
  8 38  1  0  0  0  0
  9 10  1  0  0  0  0
  9 39  1  0  0  0  0
  9 40  1  0  0  0  0
 10 41  1  0  0  0  0
 10 42  1  0  0  0  0
 10 43  1  0  0  0  0
 11 12  1  0  0  0  0
 11 44  1  0  0  0  0
 12 13  2  0  0  0  0
 12 26  1  0  0  0  0
 13 14  1  0  0  0  0
 13 45  1  0  0  0  0
 14 15  2  0  0  0  0
 14 46  1  0  0  0  0
 15 16  1  0  0  0  0
 15 24  1  0  0  0  0
 16 17  1  0  0  0  0
 16 47  1  0  0  0  0
 16 48  1  0  0  0  0
 17 18  1  0  0  0  0
 17 49  1  0  0  0  0
 17 50  1  0  0  0  0
 18 19  1  0  0  0  0
 18 51  1  0  0  0  0
 18 52  1  0  0  0  0
 19 20  1  0  0  0  0
 19 53  1  0  0  0  0
 19 54  1  0  0  0  0
 20 21  1  0  0  0  0
 20 55  1  0  0  0  0
 20 56  1  0  0  0  0
 21 22  1  0  0  0  0
 21 57  1  0  0  0  0
 21 58  1  0  0  0  0
 22 23  1  0  0  0  0
 22 59  1  0  0  0  0
 22 60  1  0  0  0  0
 24 25  2  0  0  0  0
 24 61  1  0  0  0  0
 25 26  1  0  0  0  0
 26 27  1  0  0  0  0
M  END
$$$$
