
 OpenBabel04232216423D

 49 50  0  0  0  0  0  0  0  0999 V2000
    6.0496   -0.4989    3.0110 C   0  0  0  0  0  0  0  0  0  0  0  0
    4.9299   -0.5154    2.2343 C   0  0  0  0  0  0  0  0  0  0  0  0
    4.3590    0.6991    1.7027 C   0  0  0  0  0  0  0  0  0  0  0  0
    4.7511    1.2284    0.5091 C   0  0  0  0  0  0  0  0  0  0  0  0
    4.9089    0.4093   -0.7488 C   0  0  0  0  0  0  0  0  0  0  0  0
    5.1977    2.5721    0.4971 N   0  0  0  0  0  0  0  0  0  0  0  0
    4.1701    3.6070    0.7379 C   0  0  0  0  0  0  0  0  0  0  0  0
    6.5814    2.8460    0.8212 C   0  0  0  0  0  0  0  0  0  0  0  0
    7.6016    1.8304    0.2180 C   0  0  0  0  0  0  0  0  0  0  0  0
    8.0664    2.0166   -1.2145 C   0  0  0  0  0  0  0  0  0  0  0  0
    7.0310    3.6921    1.8103 C   0  0  0  0  0  0  0  0  0  0  0  0
    6.2116    3.9351    3.0909 C   0  0  0  0  0  0  0  0  0  0  0  0
    6.1064    5.3146    3.6959 C   0  0  0  0  0  0  0  0  0  0  0  0
    6.2985    6.4800    2.9739 C   0  0  0  0  0  0  0  0  0  0  0  0
    6.2883    7.6999    3.6531 C   0  0  0  0  0  0  0  0  0  0  0  0
    6.0498    7.7305    5.0190 C   0  0  0  0  0  0  0  0  0  0  0  0
    5.8087    6.5311    5.6644 C   0  0  0  0  0  0  0  0  0  0  0  0
    5.8337    5.3359    5.0350 N   0  0  0  0  0  0  0  0  0  0  0  0
    8.4802    4.0873    1.8685 C   0  0  0  0  0  0  0  0  0  0  0  0
    9.2410    3.8574    2.9675 C   0  0  0  0  0  0  0  0  0  0  0  0
    9.5569    2.4198    3.1473 C   0  0  0  0  0  0  0  0  0  0  0  0
    8.7810    1.7217    4.0174 C   0  0  0  0  0  0  0  0  0  0  0  0
    8.0291    0.5527    3.4685 C   0  0  0  0  0  0  0  0  0  0  0  0
    6.7240    0.5991    3.4493 N   0  0  0  0  0  0  0  0  0  0  0  0
    6.3732   -1.4508    3.4238 H   0  0  0  0  0  0  0  0  0  0  0  0
    4.4094   -1.4406    2.0504 H   0  0  0  0  0  0  0  0  0  0  0  0
    4.0558    1.3738    2.4900 H   0  0  0  0  0  0  0  0  0  0  0  0
    3.9198    0.1241   -1.1289 H   0  0  0  0  0  0  0  0  0  0  0  0
    5.4918   -0.5047   -0.5994 H   0  0  0  0  0  0  0  0  0  0  0  0
    5.3746    0.9799   -1.5567 H   0  0  0  0  0  0  0  0  0  0  0  0
    3.3623    3.5125    0.0065 H   0  0  0  0  0  0  0  0  0  0  0  0
    4.5879    4.6144    0.6507 H   0  0  0  0  0  0  0  0  0  0  0  0
    3.7147    3.5034    1.7286 H   0  0  0  0  0  0  0  0  0  0  0  0
    7.2311    0.8070    0.3308 H   0  0  0  0  0  0  0  0  0  0  0  0
    8.5072    1.7854    0.8183 H   0  0  0  0  0  0  0  0  0  0  0  0
    7.2489    1.9388   -1.9304 H   0  0  0  0  0  0  0  0  0  0  0  0
    8.7934    1.2346   -1.4521 H   0  0  0  0  0  0  0  0  0  0  0  0
    8.5634    2.9820   -1.3516 H   0  0  0  0  0  0  0  0  0  0  0  0
    6.6899    3.3455    3.8753 H   0  0  0  0  0  0  0  0  0  0  0  0
    5.2196    3.4895    3.0606 H   0  0  0  0  0  0  0  0  0  0  0  0
    6.5010    6.4570    1.9067 H   0  0  0  0  0  0  0  0  0  0  0  0
    6.4847    8.6212    3.1125 H   0  0  0  0  0  0  0  0  0  0  0  0
    6.0524    8.6601    5.5727 H   0  0  0  0  0  0  0  0  0  0  0  0
    5.5955    6.4906    6.7295 H   0  0  0  0  0  0  0  0  0  0  0  0
    8.9652    3.9166    0.9080 H   0  0  0  0  0  0  0  0  0  0  0  0
    8.8749    4.2718    3.9110 H   0  0  0  0  0  0  0  0  0  0  0  0
   10.0127    1.9438    2.2758 H   0  0  0  0  0  0  0  0  0  0  0  0
    8.2483    2.2477    4.8008 H   0  0  0  0  0  0  0  0  0  0  0  0
    8.6206   -0.2855    3.0959 H   0  0  0  0  0  0  0  0  0  0  0  0
  1  2  2  0  0  0  0
  1 24  1  0  0  0  0
  1 25  1  0  0  0  0
  2  3  1  0  0  0  0
  2 26  1  0  0  0  0
  3  4  2  0  0  0  0
  3 27  1  0  0  0  0
  4  5  1  0  0  0  0
  4  6  1  0  0  0  0
  5 28  1  0  0  0  0
  5 29  1  0  0  0  0
  5 30  1  0  0  0  0
  6  7  1  0  0  0  0
  6  8  1  0  0  0  0
  7 31  1  0  0  0  0
  7 32  1  0  0  0  0
  7 33  1  0  0  0  0
  8  9  1  0  0  0  0
  8 11  2  0  0  0  0
  9 10  1  0  0  0  0
  9 34  1  0  0  0  0
  9 35  1  0  0  0  0
 10 36  1  0  0  0  0
 10 37  1  0  0  0  0
 10 38  1  0  0  0  0
 11 12  1  0  0  0  0
 11 19  1  0  0  0  0
 12 13  1  0  0  0  0
 12 39  1  0  0  0  0
 12 40  1  0  0  0  0
 13 14  1  0  0  0  0
 13 18  2  0  0  0  0
 14 15  2  0  0  0  0
 14 41  1  0  0  0  0
 15 16  1  0  0  0  0
 15 42  1  0  0  0  0
 16 17  2  0  0  0  0
 16 43  1  0  0  0  0
 17 18  1  0  0  0  0
 17 44  1  0  0  0  0
 19 20  2  0  0  0  0
 19 45  1  0  0  0  0
 20 21  1  0  0  0  0
 20 46  1  0  0  0  0
 21 22  2  0  0  0  0
 21 47  1  0  0  0  0
 22 23  1  0  0  0  0
 22 48  1  0  0  0  0
 23 24  2  0  0  0  0
 23 49  1  0  0  0  0
M  END
$$$$
