
 OpenBabel04232216573D

 66 66  0  0  0  0  0  0  0  0999 V2000
    8.3968    1.6841    6.0869 C   0  0  0  0  0  0  0  0  0  0  0  0
    8.0329    2.8857    5.4170 O   0  0  0  0  0  0  0  0  0  0  0  0
    7.3321    2.8267    4.2208 C   0  0  0  0  0  0  0  0  0  0  0  0
    7.2443    1.7169    3.4815 C   0  0  0  0  0  0  0  0  0  0  0  0
    6.6142    1.7000    2.1635 C   0  0  0  0  0  0  0  0  0  0  0  0
    7.4745    1.8749    1.1389 C   0  0  0  0  0  0  0  0  0  0  0  0
    8.0918    0.6156    0.5821 C   0  0  0  0  0  0  0  0  0  0  0  0
    6.9546   -0.2161   -0.0208 C   0  0  0  0  0  0  0  0  0  0  0  0
    7.4998   -1.4356   -0.7142 C   0  0  0  0  0  0  0  0  0  0  0  0
    6.3431   -2.2859   -1.2100 C   0  0  0  0  0  0  0  0  0  0  0  0
    6.9378   -3.5041   -1.8641 C   0  0  0  0  0  0  0  0  0  0  0  0
    5.8577   -4.4252   -2.3740 C   0  0  0  0  0  0  0  0  0  0  0  0
    6.5665   -5.6013   -2.9991 C   0  0  0  0  0  0  0  0  0  0  0  0
    5.5704   -6.5874   -3.5469 C   0  0  0  0  0  0  0  0  0  0  0  0
    6.3477   -7.7354   -4.1548 C   0  0  0  0  0  0  0  0  0  0  0  0
    5.3840   -8.7454   -4.7214 C   0  0  0  0  0  0  0  0  0  0  0  0
    6.1591   -9.8946   -5.3333 C   0  0  0  0  0  0  0  0  0  0  0  0
    5.1812  -10.9056   -5.8994 C   0  0  0  0  0  0  0  0  0  0  0  0
    5.9224  -12.0767   -6.5224 C   0  0  0  0  0  0  0  0  0  0  0  0
    4.9358  -13.0784   -7.0846 C   0  0  0  0  0  0  0  0  0  0  0  0
    7.3551    2.9390    0.1634 C   0  0  0  0  0  0  0  0  0  0  0  0
    6.8415    4.1594    0.2939 C   0  0  0  0  0  0  0  0  0  0  0  0
    6.6498    4.9483    1.5020 C   0  0  0  0  0  0  0  0  0  0  0  0
    6.0153    4.5376    2.6141 C   0  0  0  0  0  0  0  0  0  0  0  0
    6.7014    4.1476    3.8832 C   0  0  0  0  0  0  0  0  0  0  0  0
    6.5948    5.0582    4.8792 C   0  0  0  0  0  0  0  0  0  0  0  0
    9.1130    1.0888    5.5037 H   0  0  0  0  0  0  0  0  0  0  0  0
    7.5004    1.1123    6.3178 H   0  0  0  0  0  0  0  0  0  0  0  0
    8.8828    1.9625    7.0208 H   0  0  0  0  0  0  0  0  0  0  0  0
    7.7129    0.7889    3.7513 H   0  0  0  0  0  0  0  0  0  0  0  0
    5.6651    2.2351    2.1784 H   0  0  0  0  0  0  0  0  0  0  0  0
    8.6251    0.0460    1.3534 H   0  0  0  0  0  0  0  0  0  0  0  0
    8.8249    0.8520   -0.1987 H   0  0  0  0  0  0  0  0  0  0  0  0
    6.3756    0.3716   -0.7462 H   0  0  0  0  0  0  0  0  0  0  0  0
    6.2508   -0.5348    0.7605 H   0  0  0  0  0  0  0  0  0  0  0  0
    8.1189   -2.0161   -0.0222 H   0  0  0  0  0  0  0  0  0  0  0  0
    8.1331   -1.1415   -1.5592 H   0  0  0  0  0  0  0  0  0  0  0  0
    5.7234   -1.7311   -1.9264 H   0  0  0  0  0  0  0  0  0  0  0  0
    5.6946   -2.5823   -0.3766 H   0  0  0  0  0  0  0  0  0  0  0  0
    7.5682   -4.0389   -1.1420 H   0  0  0  0  0  0  0  0  0  0  0  0
    7.5880   -3.1984   -2.6935 H   0  0  0  0  0  0  0  0  0  0  0  0
    5.2271   -3.9142   -3.1117 H   0  0  0  0  0  0  0  0  0  0  0  0
    5.2078   -4.7551   -1.5543 H   0  0  0  0  0  0  0  0  0  0  0  0
    7.2040   -6.0911   -2.2512 H   0  0  0  0  0  0  0  0  0  0  0  0
    7.2270   -5.2518   -3.8035 H   0  0  0  0  0  0  0  0  0  0  0  0
    4.9381   -6.1073   -4.3036 H   0  0  0  0  0  0  0  0  0  0  0  0
    4.9132   -6.9483   -2.7471 H   0  0  0  0  0  0  0  0  0  0  0  0
    6.9844   -8.2011   -3.3903 H   0  0  0  0  0  0  0  0  0  0  0  0
    7.0142   -7.3595   -4.9418 H   0  0  0  0  0  0  0  0  0  0  0  0
    4.7506   -8.2676   -5.4795 H   0  0  0  0  0  0  0  0  0  0  0  0
    4.7226   -9.1121   -3.9272 H   0  0  0  0  0  0  0  0  0  0  0  0
    6.7948  -10.3625   -4.5717 H   0  0  0  0  0  0  0  0  0  0  0  0
    6.8210   -9.5190   -6.1233 H   0  0  0  0  0  0  0  0  0  0  0  0
    4.5476  -10.4186   -6.6517 H   0  0  0  0  0  0  0  0  0  0  0  0
    4.5185  -11.2602   -5.1003 H   0  0  0  0  0  0  0  0  0  0  0  0
    6.5541  -12.5608   -5.7655 H   0  0  0  0  0  0  0  0  0  0  0  0
    6.5840  -11.7171   -7.3176 H   0  0  0  0  0  0  0  0  0  0  0  0
    4.2799  -13.4598   -6.2962 H   0  0  0  0  0  0  0  0  0  0  0  0
    5.4656  -13.9228   -7.5346 H   0  0  0  0  0  0  0  0  0  0  0  0
    4.3104  -12.6119   -7.8540 H   0  0  0  0  0  0  0  0  0  0  0  0
    7.8779    2.7719   -0.7774 H   0  0  0  0  0  0  0  0  0  0  0  0
    6.6891    4.7238   -0.6315 H   0  0  0  0  0  0  0  0  0  0  0  0
    6.3698    5.9388    1.1298 H   0  0  0  0  0  0  0  0  0  0  0  0
    5.1340    5.1292    2.8457 H   0  0  0  0  0  0  0  0  0  0  0  0
    6.1008    6.0121    4.7546 H   0  0  0  0  0  0  0  0  0  0  0  0
    6.9462    4.8553    5.8859 H   0  0  0  0  0  0  0  0  0  0  0  0
  1  2  1  0  0  0  0
  1 27  1  0  0  0  0
  1 28  1  0  0  0  0
  1 29  1  0  0  0  0
  2  3  1  0  0  0  0
  3  4  2  3  0  0  0
  3 25  1  0  0  0  0
  4  5  1  0  0  0  0
  4 30  1  0  0  0  0
  5  6  2  3  0  0  0
  5 31  1  0  0  0  0
  6  7  1  0  0  0  0
  6 21  1  0  0  0  0
  7  8  1  0  0  0  0
  7 32  1  0  0  0  0
  7 33  1  0  0  0  0
  8  9  1  0  0  0  0
  8 34  1  0  0  0  0
  8 35  1  0  0  0  0
  9 10  1  0  0  0  0
  9 36  1  0  0  0  0
  9 37  1  0  0  0  0
 10 11  1  0  0  0  0
 10 38  1  0  0  0  0
 10 39  1  0  0  0  0
 11 12  1  0  0  0  0
 11 40  1  0  0  0  0
 11 41  1  0  0  0  0
 12 13  1  0  0  0  0
 12 42  1  0  0  0  0
 12 43  1  0  0  0  0
 13 14  1  0  0  0  0
 13 44  1  0  0  0  0
 13 45  1  0  0  0  0
 14 15  1  0  0  0  0
 14 46  1  0  0  0  0
 14 47  1  0  0  0  0
 15 16  1  0  0  0  0
 15 48  1  0  0  0  0
 15 49  1  0  0  0  0
 16 17  1  0  0  0  0
 16 50  1  0  0  0  0
 16 51  1  0  0  0  0
 17 18  1  0  0  0  0
 17 52  1  0  0  0  0
 17 53  1  0  0  0  0
 18 19  1  0  0  0  0
 18 54  1  0  0  0  0
 18 55  1  0  0  0  0
 19 20  1  0  0  0  0
 19 56  1  0  0  0  0
 19 57  1  0  0  0  0
 20 58  1  0  0  0  0
 20 59  1  0  0  0  0
 20 60  1  0  0  0  0
 21 22  2  3  0  0  0
 21 61  1  0  0  0  0
 22 23  1  0  0  0  0
 22 62  1  0  0  0  0
 23 24  2  3  0  0  0
 23 63  1  0  0  0  0
 24 25  1  0  0  0  0
 24 64  1  0  0  0  0
 25 26  2  0  0  0  0
 26 65  1  0  0  0  0
 26 66  1  0  0  0  0
M  END
$$$$
