
 OpenBabel04232216473D

 54 56  0  0  0  0  0  0  0  0999 V2000
    1.2585    2.4823    0.8619 C   0  0  0  0  0  0  0  0  0  0  0  0
    2.7785    2.4823    0.8619 C   0  0  0  0  0  0  0  0  0  0  0  0
    1.2722    2.4817    0.8624 C   0  0  0  0  0  3  0  0  0  0  0  0
    0.7701    2.3235    2.2755 C   0  0  0  0  0  0  0  0  0  0  0  0
    0.3330    3.5336    3.0595 N   0  0  0  0  0  0  0  0  0  0  0  0
    1.3369    3.8486    4.0617 C   0  0  0  0  0  0  0  0  0  0  0  0
    1.6183    5.1467    4.2543 C   0  0  0  0  0  0  0  0  0  0  0  0
    2.6499    5.5500    5.2757 C   0  0  0  0  0  0  0  0  0  0  0  0
    3.5856    6.5978    4.6692 C   0  0  0  0  0  0  0  0  0  0  0  0
    4.8705    5.9186    4.1987 C   0  0  0  0  0  0  0  0  0  0  0  0
    4.9638    6.0060    2.6742 C   0  0  0  0  0  0  0  0  0  0  0  0
    5.5511    4.7051    2.1240 C   0  0  0  0  0  0  0  0  0  0  0  0
    5.4500    4.7055    0.5977 C   0  0  0  0  0  0  0  0  0  0  0  0
    4.9405    3.3433    0.1207 C   0  0  0  0  0  0  0  0  0  0  0  0
    5.0709    4.1051    1.4296 C   0  0  0  0  0  0  0  0  0  0  0  0
    6.1955    4.8254    1.6882 C   0  0  0  0  0  0  0  0  0  0  0  0
    7.3217    4.8685    0.6683 C   0  0  0  0  0  0  0  0  0  0  0  0
    6.3259    5.5872    2.9971 C   0  0  0  0  0  0  0  0  0  0  0  0
    6.1955    4.8254    1.6882 C   0  0  0  0  0  0  0  0  0  0  0  0
    7.4506    6.3076    3.2557 C   0  0  0  0  0  0  0  0  0  0  0  0
    7.5810    7.0694    4.5645 C   0  0  0  0  0  0  0  0  0  0  0  0
    2.6727    4.3399   -0.7367 C   0  0  0  0  0  0  0  0  0  0  0  0
    3.4333    3.3424    0.1216 C   0  0  0  0  0  0  0  0  0  0  0  0
    0.9018    1.7177    1.5199 H   0  0  0  0  0  0  0  0  0  0  0  0
    0.9018    2.2947   -0.1293 H   0  0  0  0  0  0  0  0  0  0  0  0
    0.9018    3.4345    1.1950 H   0  0  0  0  0  0  0  0  0  0  0  0
    0.9157    1.6694    0.2642 H   0  0  0  0  0  0  0  0  0  0  0  0
   -0.5030    4.0333    2.9152 H   0  0  0  0  0  0  0  0  0  0  0  0
    2.2446    3.3606    3.7741 H   0  0  0  0  0  0  0  0  0  0  0  0
    0.9194    3.5140    4.9884 H   0  0  0  0  0  0  0  0  0  0  0  0
    0.7024    5.6230    4.5356 H   0  0  0  0  0  0  0  0  0  0  0  0
    2.0617    5.4426    3.3266 H   0  0  0  0  0  0  0  0  0  0  0  0
    3.2176    4.6913    5.5677 H   0  0  0  0  0  0  0  0  0  0  0  0
    2.1606    5.9625    6.1332 H   0  0  0  0  0  0  0  0  0  0  0  0
    3.8215    7.3358    5.4072 H   0  0  0  0  0  0  0  0  0  0  0  0
    3.1045    7.0679    3.8371 H   0  0  0  0  0  0  0  0  0  0  0  0
    4.8610    4.8911    4.4973 H   0  0  0  0  0  0  0  0  0  0  0  0
    5.7146    6.4090    4.6368 H   0  0  0  0  0  0  0  0  0  0  0  0
    5.5952    6.8258    2.4018 H   0  0  0  0  0  0  0  0  0  0  0  0
    3.9867    6.1574    2.2651 H   0  0  0  0  0  0  0  0  0  0  0  0
    5.0055    3.8730    2.5174 H   0  0  0  0  0  0  0  0  0  0  0  0
    6.5783    4.6271    2.4134 H   0  0  0  0  0  0  0  0  0  0  0  0
    6.4155    4.8929    0.1761 H   0  0  0  0  0  0  0  0  0  0  0  0
    4.7703    5.4705    0.2850 H   0  0  0  0  0  0  0  0  0  0  0  0
    4.3062    4.0758    2.1220 H   0  0  0  0  0  0  0  0  0  0  0  0
    7.0545    4.2783   -0.1833 H   0  0  0  0  0  0  0  0  0  0  0  0
    8.2156    4.4771    1.1073 H   0  0  0  0  0  0  0  0  0  0  0  0
    7.4879    5.8805    0.3630 H   0  0  0  0  0  0  0  0  0  0  0  0
    5.2519    4.3217    1.6612 H   0  0  0  0  0  0  0  0  0  0  0  0
    6.9853    4.1075    1.6132 H   0  0  0  0  0  0  0  0  0  0  0  0
    6.2576    5.5108    0.8689 H   0  0  0  0  0  0  0  0  0  0  0  0
    8.2152    6.3369    2.5632 H   0  0  0  0  0  0  0  0  0  0  0  0
    7.9708    7.5313    5.4010 H   0  0  0  0  0  0  0  0  0  0  0  0
    1.9898    4.5219   -1.4888 H   0  0  0  0  0  0  0  0  0  0  0  0
  1  2  1  0  0  0  0
  1 24  1  0  0  0  0
  1 25  1  0  0  0  0
  1 26  1  0  0  0  0
  2  3  1  0  0  0  0
  2 23  2  0  0  0  0
  3  4  1  0  0  0  0
  3 27  1  0  0  0  0
  4  5  1  0  0  0  0
  4 14  2  0  0  0  0
  5  6  1  0  0  0  0
  5 28  1  0  0  0  0
  6  7  1  0  0  0  0
  6 29  1  0  0  0  0
  6 30  1  0  0  0  0
  7  8  1  0  0  0  0
  7 31  1  0  0  0  0
  7 32  1  0  0  0  0
  8  9  1  0  0  0  0
  8 33  1  0  0  0  0
  8 34  1  0  0  0  0
  9 10  1  0  0  0  0
  9 35  1  0  0  0  0
  9 36  1  0  0  0  0
 10 11  1  0  0  0  0
 10 37  1  0  0  0  0
 10 38  1  0  0  0  0
 11 12  1  0  0  0  0
 11 39  1  0  0  0  0
 11 40  1  0  0  0  0
 12 13  1  0  0  0  0
 12 41  1  0  0  0  0
 12 42  1  0  0  0  0
 13 14  1  0  0  0  0
 13 43  1  0  0  0  0
 13 44  1  0  0  0  0
 14 15  1  0  0  0  0
 14 23  1  0  0  0  0
 15 16  2  0  0  0  0
 15 45  1  0  0  0  0
 16 17  1  0  0  0  0
 16 18  1  0  0  0  0
 17 46  1  0  0  0  0
 17 47  1  0  0  0  0
 17 48  1  0  0  0  0
 18 19  1  0  0  0  0
 18 20  2  0  0  0  0
 19 49  1  0  0  0  0
 19 50  1  0  0  0  0
 19 51  1  0  0  0  0
 20 21  1  0  0  0  0
 20 52  1  0  0  0  0
 21 22  2  0  0  0  0
 21 53  1  0  0  0  0
 22 23  1  0  0  0  0
 22 54  1  0  0  0  0
M  END
$$$$
