
 OpenBabel04232216453D

 56 57  0  0  0  0  0  0  0  0999 V2000
    2.1312   -0.1011   -1.1513 C   0  0  0  0  0  0  0  0  0  0  0  0
    3.5560   -0.6377   -1.2118 C   0  0  0  0  0  0  0  0  0  0  0  0
    3.7913   -1.6649   -0.2123 C   0  0  0  0  0  0  0  0  0  0  0  0
    4.6937   -1.5134    0.7947 C   0  0  0  0  0  0  0  0  0  0  0  0
    5.2768   -0.1132    1.0435 C   0  0  0  0  0  0  0  0  0  0  0  0
    5.2826   -2.6089    1.5096 N   0  0  0  0  0  0  0  0  0  0  0  0
    4.4860   -3.8387    1.7415 C   0  0  0  0  0  0  0  0  0  0  0  0
    3.7096   -3.7661    3.0384 C   0  0  0  0  0  0  0  0  0  0  0  0
    6.6686   -2.7737    1.1916 C   0  0  0  0  0  0  0  0  0  0  0  0
    7.6404   -1.8443    1.9774 C   0  0  0  0  0  0  0  0  0  0  0  0
    8.7490   -1.0519    1.2531 C   0  0  0  0  0  0  0  0  0  0  0  0
    9.9269   -1.9090    0.7778 C   0  0  0  0  0  0  0  0  0  0  0  0
    9.5238   -3.1220   -0.0619 C   0  0  0  0  0  0  0  0  0  0  0  0
    7.1014   -3.5327    0.1430 C   0  0  0  0  0  0  0  0  0  0  0  0
    6.4555   -4.7276   -0.5422 C   0  0  0  0  0  0  0  0  0  0  0  0
    6.9568   -6.0505    0.0404 C   0  0  0  0  0  0  0  0  0  0  0  0
    8.1555   -2.9446   -0.6798 C   0  0  0  0  0  0  0  0  0  0  0  0
    7.8413   -2.1643   -1.7290 C   0  0  0  0  0  0  0  0  0  0  0  0
    6.4445   -1.9054   -2.2118 C   0  0  0  0  0  0  0  0  0  0  0  0
    6.1739   -2.7807   -3.4221 C   0  0  0  0  0  0  0  0  0  0  0  0
    5.9390   -0.6455   -2.1641 C   0  0  0  0  0  0  0  0  0  0  0  0
    4.5293   -0.1474   -2.0261 C   0  0  0  0  0  0  0  0  0  0  0  0
    4.3311    1.2587   -2.5531 C   0  0  0  0  0  0  0  0  0  0  0  0
    1.4040   -0.9145   -1.0746 H   0  0  0  0  0  0  0  0  0  0  0  0
    1.8728    0.4646   -2.0519 H   0  0  0  0  0  0  0  0  0  0  0  0
    2.0026    0.5515   -0.2909 H   0  0  0  0  0  0  0  0  0  0  0  0
    3.2795   -2.5949   -0.3906 H   0  0  0  0  0  0  0  0  0  0  0  0
    4.6274    0.6979    0.6966 H   0  0  0  0  0  0  0  0  0  0  0  0
    6.2338    0.0198    0.5306 H   0  0  0  0  0  0  0  0  0  0  0  0
    5.4162    0.0816    2.1096 H   0  0  0  0  0  0  0  0  0  0  0  0
    5.1336   -4.7157    1.8133 H   0  0  0  0  0  0  0  0  0  0  0  0
    3.7926   -4.0438    0.9204 H   0  0  0  0  0  0  0  0  0  0  0  0
    4.3906   -3.8346    3.8905 H   0  0  0  0  0  0  0  0  0  0  0  0
    3.0161   -4.6140    3.0940 H   0  0  0  0  0  0  0  0  0  0  0  0
    3.1326   -2.8417    3.1223 H   0  0  0  0  0  0  0  0  0  0  0  0
    8.1125   -2.4670    2.7480 H   0  0  0  0  0  0  0  0  0  0  0  0
    7.0642   -1.1193    2.5545 H   0  0  0  0  0  0  0  0  0  0  0  0
    9.1421   -0.2867    1.9358 H   0  0  0  0  0  0  0  0  0  0  0  0
    8.3420   -0.4868    0.4064 H   0  0  0  0  0  0  0  0  0  0  0  0
   10.4982   -2.2481    1.6528 H   0  0  0  0  0  0  0  0  0  0  0  0
   10.6129   -1.2807    0.1961 H   0  0  0  0  0  0  0  0  0  0  0  0
    9.5201   -4.0014    0.6046 H   0  0  0  0  0  0  0  0  0  0  0  0
   10.2826   -3.3462   -0.8186 H   0  0  0  0  0  0  0  0  0  0  0  0
    6.7012   -4.7594   -1.6088 H   0  0  0  0  0  0  0  0  0  0  0  0
    5.3666   -4.6858   -0.5067 H   0  0  0  0  0  0  0  0  0  0  0  0
    7.9766   -6.2667   -0.3031 H   0  0  0  0  0  0  0  0  0  0  0  0
    6.3187   -6.8754   -0.2964 H   0  0  0  0  0  0  0  0  0  0  0  0
    6.9651   -6.0512    1.1347 H   0  0  0  0  0  0  0  0  0  0  0  0
    8.6234   -1.6325   -2.2677 H   0  0  0  0  0  0  0  0  0  0  0  0
    5.3915   -3.5101   -3.2086 H   0  0  0  0  0  0  0  0  0  0  0  0
    7.0711   -3.3398   -3.7271 H   0  0  0  0  0  0  0  0  0  0  0  0
    5.8792   -2.1868   -4.2947 H   0  0  0  0  0  0  0  0  0  0  0  0
    6.4575   -0.0019   -2.8898 H   0  0  0  0  0  0  0  0  0  0  0  0
    5.2816    1.7787   -2.7189 H   0  0  0  0  0  0  0  0  0  0  0  0
    3.8121    1.8810   -1.8029 H   0  0  0  0  0  0  0  0  0  0  0  0
    3.7540    1.2679   -3.4768 H   0  0  0  0  0  0  0  0  0  0  0  0
  1  2  1  0  0  0  0
  1 24  1  0  0  0  0
  1 25  1  0  0  0  0
  1 26  1  0  0  0  0
  2  3  1  0  0  0  0
  2 22  2  3  0  0  0
  3  4  2  3  0  0  0
  3 27  1  0  0  0  0
  4  5  1  0  0  0  0
  4  6  1  0  0  0  0
  5 28  1  0  0  0  0
  5 29  1  0  0  0  0
  5 30  1  0  0  0  0
  6  7  1  0  0  0  0
  6  9  1  0  0  0  0
  7  8  1  0  0  0  0
  7 31  1  0  0  0  0
  7 32  1  0  0  0  0
  8 33  1  0  0  0  0
  8 34  1  0  0  0  0
  8 35  1  0  0  0  0
  9 10  1  0  0  0  0
  9 14  2  0  0  0  0
 10 11  1  0  0  0  0
 10 36  1  0  0  0  0
 10 37  1  0  0  0  0
 11 12  1  0  0  0  0
 11 38  1  0  0  0  0
 11 39  1  0  0  0  0
 12 13  1  0  0  0  0
 12 40  1  0  0  0  0
 12 41  1  0  0  0  0
 13 17  1  0  0  0  0
 13 42  1  0  0  0  0
 13 43  1  0  0  0  0
 14 15  1  0  0  0  0
 14 17  1  0  0  0  0
 15 16  1  0  0  0  0
 15 44  1  0  0  0  0
 15 45  1  0  0  0  0
 16 46  1  0  0  0  0
 16 47  1  0  0  0  0
 16 48  1  0  0  0  0
 17 18  2  3  0  0  0
 18 19  1  0  0  0  0
 18 49  1  0  0  0  0
 19 20  1  0  0  0  0
 19 21  2  3  0  0  0
 20 50  1  0  0  0  0
 20 51  1  0  0  0  0
 20 52  1  0  0  0  0
 21 22  1  0  0  0  0
 21 53  1  0  0  0  0
 22 23  1  0  0  0  0
 23 54  1  0  0  0  0
 23 55  1  0  0  0  0
 23 56  1  0  0  0  0
M  END
$$$$
