
 OpenBabel04232216433D

110109  0  0  0  0  0  0  0  0999 V2000
    2.8607   -0.2425    1.5077 C   0  0  0  0  0  0  0  0  0  0  0  0
    2.6068    0.0415    0.0500 C   0  0  0  0  0  0  0  0  0  0  0  0
    1.8288   -0.6447   -0.6069 O   0  0  0  0  0  0  0  0  0  0  0  0
    3.3354    1.2155   -0.5579 C   0  0  0  0  0  0  0  0  0  0  0  0
    4.7168    0.9376   -0.4228 O   0  0  0  0  0  0  0  0  0  0  0  0
    5.3906    2.0789   -1.0103 O   0  0  0  0  0  0  0  0  0  0  0  0
    6.7756    1.7989   -0.8685 C   0  0  0  0  0  0  0  0  0  0  0  0
    7.5433    2.9573   -1.4684 C   0  0  0  0  0  0  0  0  0  0  0  0
    8.9400    2.7273   -1.3498 O   0  0  0  0  0  0  0  0  0  0  0  0
    9.6521    3.8184   -1.9148 C   0  0  0  0  0  0  0  0  0  0  0  0
   11.1325    3.5826   -1.7913 C   0  0  0  0  0  0  0  0  0  0  0  0
   11.7730    4.7038   -2.3739 O   0  0  0  0  0  0  0  0  0  0  0  0
   13.1656    4.4116   -2.2189 O   0  0  0  0  0  0  0  0  0  0  0  0
   13.8303    5.5073   -2.7861 C   0  0  0  0  0  0  0  0  0  0  0  0
   15.1892    5.2280   -2.6401 O   0  0  0  0  0  0  0  0  0  0  0  0
   15.8517    6.3417   -3.2164 O   0  0  0  0  0  0  0  0  0  0  0  0
   17.2307    6.0832   -3.0786 O   0  0  0  0  0  0  0  0  0  0  0  0
   17.8589    7.1754   -3.6465 C   0  0  0  0  0  0  0  0  0  0  0  0
   19.1933    6.8598   -3.4814 O   0  0  0  0  0  0  0  0  0  0  0  0
   19.8321    7.9618   -4.0520 O   0  0  0  0  0  0  0  0  0  0  0  0
   21.1879    7.7179   -3.9264 O   0  0  0  0  0  0  0  0  0  0  0  0
   21.8434    8.8013   -4.4850 O   0  0  0  0  0  0  0  0  0  0  0  0
   23.1875    8.5357   -4.3480 O   0  0  0  0  0  0  0  0  0  0  0  0
   23.8430    9.6134   -4.9038 O   0  0  0  0  0  0  0  0  0  0  0  0
   25.1762    9.3456   -4.7658 O   0  0  0  0  0  0  0  0  0  0  0  0
   25.8255   10.4246   -5.3223 O   0  0  0  0  0  0  0  0  0  0  0  0
   27.1607   10.1588   -5.1852 O   0  0  0  0  0  0  0  0  0  0  0  0
   27.7983   11.2379   -5.7418 O   0  0  0  0  0  0  0  0  0  0  0  0
   29.1329   10.9671   -5.6021 O   0  0  0  0  0  0  0  0  0  0  0  0
   29.7629   12.0379   -6.1544 O   0  0  0  0  0  0  0  0  0  0  0  0
   31.0958   11.7663   -6.0143 O   0  0  0  0  0  0  0  0  0  0  0  0
   31.7289   12.8379   -6.5670 O   0  0  0  0  0  0  0  0  0  0  0  0
   33.0560   12.5640   -6.4257 O   0  0  0  0  0  0  0  0  0  0  0  0
   33.6896   13.6377   -6.9795 O   0  0  0  0  0  0  0  0  0  0  0  0
   35.0180   13.3652   -6.8390 O   0  0  0  0  0  0  0  0  0  0  0  0
   35.6474   14.4401   -7.3934 O   0  0  0  0  0  0  0  0  0  0  0  0
   36.9753   14.1684   -7.2533 O   0  0  0  0  0  0  0  0  0  0  0  0
   37.6048   15.2430   -7.8075 O   0  0  0  0  0  0  0  0  0  0  0  0
   38.9330   14.9702   -7.6668 O   0  0  0  0  0  0  0  0  0  0  0  0
   39.5629   16.0446   -8.2210 O   0  0  0  0  0  0  0  0  0  0  0  0
   40.8911   15.7717   -8.0802 O   0  0  0  0  0  0  0  0  0  0  0  0
   41.5202   16.8461   -8.6344 O   0  0  0  0  0  0  0  0  0  0  0  0
   42.8627   16.5622   -8.4879 O   0  0  0  0  0  0  0  0  0  0  0  0
   43.4799   17.6482   -9.0481 O   0  0  0  0  0  0  0  0  0  0  0  0
   44.8096   17.3746   -8.9070 O   0  0  0  0  0  0  0  0  0  0  0  0
   45.4429   18.4528   -9.4631 O   0  0  0  0  0  0  0  0  0  0  0  0
   46.7667   18.1773   -9.3210 O   0  0  0  0  0  0  0  0  0  0  0  0
   47.4040   19.2596   -9.8792 O   0  0  0  0  0  0  0  0  0  0  0  0
   48.7293   18.9822   -9.7362 O   0  0  0  0  0  0  0  0  0  0  0  0
   49.3573   20.0575  -10.2908 O   0  0  0  0  0  0  0  0  0  0  0  0
   50.6931   19.7831  -10.1493 O   0  0  0  0  0  0  0  0  0  0  0  0
   51.3162   20.8583  -10.7038 O   0  0  0  0  0  0  0  0  0  0  0  0
   52.6441   20.5824  -10.5615 O   0  0  0  0  0  0  0  0  0  0  0  0
   53.2766   21.6548  -11.1146 O   0  0  0  0  0  0  0  0  0  0  0  0
   54.5996   21.3832  -10.9746 O   0  0  0  0  0  0  0  0  0  0  0  0
   55.2292   22.4569  -11.5284 O   0  0  0  0  0  0  0  0  0  0  0  0
   56.5570   22.1819  -11.3865 O   0  0  0  0  0  0  0  0  0  0  0  0
   57.1877   23.2564  -11.9408 O   0  0  0  0  0  0  0  0  0  0  0  0
   58.5164   22.9867  -11.8016 O   0  0  0  0  0  0  0  0  0  0  0  0
   59.1446   24.0666  -12.3586 O   0  0  0  0  0  0  0  0  0  0  0  0
   60.4777   23.8028  -12.2226 O   0  0  0  0  0  0  0  0  0  0  0  0
   61.1102   24.8787  -12.7775 O   0  0  0  0  0  0  0  0  0  0  0  0
   62.4489   24.6102  -12.6390 O   0  0  0  0  0  0  0  0  0  0  0  0
   63.0891   25.6849  -13.1933 O   0  0  0  0  0  0  0  0  0  0  0  0
   64.4322   25.4218  -13.0576 O   0  0  0  0  0  0  0  0  0  0  0  0
   65.0789   26.4977  -13.6126 O   0  0  0  0  0  0  0  0  0  0  0  0
   66.4234   26.2338  -13.4764 O   0  0  0  0  0  0  0  0  0  0  0  0
   67.0934   27.3131  -14.0331 O   0  0  0  0  0  0  0  0  0  0  0  0
   68.4357   27.0426  -13.8936 O   0  0  0  0  0  0  0  0  0  0  0  0
   69.1223   28.1171  -14.4477 O   0  0  0  0  0  0  0  0  0  0  0  0
   70.4842   27.8471  -14.3085 O   0  0  0  0  0  0  0  0  0  0  0  0
   71.0514   28.9754  -14.8905 C   0  0  0  0  0  0  0  0  0  0  0  0
   72.5056   28.7039  -14.7528 C   0  0  0  0  0  0  0  0  0  0  0  0
   73.2470   29.8585  -15.3486 C   0  0  0  0  0  0  0  0  0  0  0  0
   74.7255   29.5950  -15.2150 C   0  0  0  0  0  0  0  0  0  0  0  0
   75.4864   30.7552  -15.8159 C   0  0  0  0  0  0  0  0  0  0  0  0
   76.9802   30.5181  -15.6938 C   0  0  0  0  0  0  0  0  0  0  0  0
   77.7366   31.6828  -16.2970 C   0  0  0  0  0  0  0  0  0  0  0  0
    2.2711   -1.1115    1.8127 H   0  0  0  0  0  0  0  0  0  0  0  0
    2.5614    0.6171    2.1124 H   0  0  0  0  0  0  0  0  0  0  0  0
    3.9180   -0.4662    1.6631 H   0  0  0  0  0  0  0  0  0  0  0  0
    3.0719    2.1340   -0.0242 H   0  0  0  0  0  0  0  0  0  0  0  0
    3.0734    1.3083   -1.6172 H   0  0  0  0  0  0  0  0  0  0  0  0
    7.0307    0.8665   -1.3858 H   0  0  0  0  0  0  0  0  0  0  0  0
    7.0336    1.6807    0.1904 H   0  0  0  0  0  0  0  0  0  0  0  0
    7.2740    3.8874   -0.9529 H   0  0  0  0  0  0  0  0  0  0  0  0
    7.2734    3.0739   -2.5251 H   0  0  0  0  0  0  0  0  0  0  0  0
    9.3887    4.7512   -1.4007 H   0  0  0  0  0  0  0  0  0  0  0  0
    9.3901    3.9357   -2.9738 H   0  0  0  0  0  0  0  0  0  0  0  0
   11.4313    2.6661   -2.3137 H   0  0  0  0  0  0  0  0  0  0  0  0
   11.4302    3.4842   -0.7405 H   0  0  0  0  0  0  0  0  0  0  0  0
   13.5843    6.4337   -2.2537 H   0  0  0  0  0  0  0  0  0  0  0  0
   13.5859    5.6062   -3.8504 H   0  0  0  0  0  0  0  0  0  0  0  0
   17.6257    8.1067   -3.1154 H   0  0  0  0  0  0  0  0  0  0  0  0
   17.6269    7.2752   -4.7143 H   0  0  0  0  0  0  0  0  0  0  0  0
   70.7305   29.8706  -14.3439 H   0  0  0  0  0  0  0  0  0  0  0  0
   70.7283   29.0507  -15.9360 H   0  0  0  0  0  0  0  0  0  0  0  0
   72.7485   27.7561  -15.2516 H   0  0  0  0  0  0  0  0  0  0  0  0
   72.7508   28.5593  -13.6921 H   0  0  0  0  0  0  0  0  0  0  0  0
   72.9657   30.7833  -14.8300 H   0  0  0  0  0  0  0  0  0  0  0  0
   72.9634   29.9736  -16.4020 H   0  0  0  0  0  0  0  0  0  0  0  0
   74.9830   28.6595  -15.7267 H   0  0  0  0  0  0  0  0  0  0  0  0
   74.9857   29.4709  -14.1565 H   0  0  0  0  0  0  0  0  0  0  0  0
   75.2056   31.6831  -15.3021 H   0  0  0  0  0  0  0  0  0  0  0  0
   75.2050   30.8714  -16.8700 H   0  0  0  0  0  0  0  0  0  0  0  0
   77.2539   29.5886  -16.2066 H   0  0  0  0  0  0  0  0  0  0  0  0
   77.2545   30.4003  -14.6389 H   0  0  0  0  0  0  0  0  0  0  0  0
   77.4840   31.7994  -17.3559 H   0  0  0  0  0  0  0  0  0  0  0  0
   78.8130   31.5185  -16.2124 H   0  0  0  0  0  0  0  0  0  0  0  0
   77.4846   32.6148  -15.7809 H   0  0  0  0  0  0  0  0  0  0  0  0
  1  2  1  0  0  0  0
  1 79  1  0  0  0  0
  1 80  1  0  0  0  0
  1 81  1  0  0  0  0
  2  3  2  0  0  0  0
  2  4  1  0  0  0  0
  4  5  1  0  0  0  0
  4 82  1  0  0  0  0
  4 83  1  0  0  0  0
  5  6  1  0  0  0  0
  6  7  1  0  0  0  0
  7  8  1  0  0  0  0
  7 84  1  0  0  0  0
  7 85  1  0  0  0  0
  8  9  1  0  0  0  0
  8 86  1  0  0  0  0
  8 87  1  0  0  0  0
  9 10  1  0  0  0  0
 10 11  1  0  0  0  0
 10 88  1  0  0  0  0
 10 89  1  0  0  0  0
 11 12  1  0  0  0  0
 11 90  1  0  0  0  0
 11 91  1  0  0  0  0
 12 13  1  0  0  0  0
 13 14  1  0  0  0  0
 14 15  1  0  0  0  0
 14 92  1  0  0  0  0
 14 93  1  0  0  0  0
 15 16  1  0  0  0  0
 16 17  1  0  0  0  0
 17 18  1  0  0  0  0
 18 19  1  0  0  0  0
 18 94  1  0  0  0  0
 18 95  1  0  0  0  0
 19 20  1  0  0  0  0
 20 21  1  0  0  0  0
 21 22  1  0  0  0  0
 22 23  1  0  0  0  0
 23 24  1  0  0  0  0
 24 25  1  0  0  0  0
 25 26  1  0  0  0  0
 26 27  1  0  0  0  0
 27 28  1  0  0  0  0
 28 29  1  0  0  0  0
 29 30  1  0  0  0  0
 30 31  1  0  0  0  0
 31 32  1  0  0  0  0
 32 33  1  0  0  0  0
 33 34  1  0  0  0  0
 34 35  1  0  0  0  0
 35 36  1  0  0  0  0
 36 37  1  0  0  0  0
 37 38  1  0  0  0  0
 38 39  1  0  0  0  0
 39 40  1  0  0  0  0
 40 41  1  0  0  0  0
 41 42  1  0  0  0  0
 42 43  1  0  0  0  0
 43 44  1  0  0  0  0
 44 45  1  0  0  0  0
 45 46  1  0  0  0  0
 46 47  1  0  0  0  0
 47 48  1  0  0  0  0
 48 49  1  0  0  0  0
 49 50  1  0  0  0  0
 50 51  1  0  0  0  0
 51 52  1  0  0  0  0
 52 53  1  0  0  0  0
 53 54  1  0  0  0  0
 54 55  1  0  0  0  0
 55 56  1  0  0  0  0
 56 57  1  0  0  0  0
 57 58  1  0  0  0  0
 58 59  1  0  0  0  0
 59 60  1  0  0  0  0
 60 61  1  0  0  0  0
 61 62  1  0  0  0  0
 62 63  1  0  0  0  0
 63 64  1  0  0  0  0
 64 65  1  0  0  0  0
 65 66  1  0  0  0  0
 66 67  1  0  0  0  0
 67 68  1  0  0  0  0
 68 69  1  0  0  0  0
 69 70  1  0  0  0  0
 70 71  1  0  0  0  0
 71 72  1  0  0  0  0
 72 73  1  0  0  0  0
 72 96  1  0  0  0  0
 72 97  1  0  0  0  0
 73 74  1  0  0  0  0
 73 98  1  0  0  0  0
 73 99  1  0  0  0  0
 74 75  1  0  0  0  0
 74100  1  0  0  0  0
 74101  1  0  0  0  0
 75 76  1  0  0  0  0
 75102  1  0  0  0  0
 75103  1  0  0  0  0
 76 77  1  0  0  0  0
 76104  1  0  0  0  0
 76105  1  0  0  0  0
 77 78  1  0  0  0  0
 77106  1  0  0  0  0
 77107  1  0  0  0  0
 78108  1  0  0  0  0
 78109  1  0  0  0  0
 78110  1  0  0  0  0
M  END
$$$$
