
 OpenBabel04232216593D

232231  0  0  0  0  0  0  0  0999 V2000
    2.8113    0.5430   -0.8723 O   0  0  0  0  0  0  0  0  0  0  0  0
    2.2449   -0.0821    0.0298 C   0  0  0  0  0  0  0  0  0  0  0  0
    0.7389   -0.1173    0.0843 C   0  0  0  0  0  0  0  0  0  0  0  0
    3.0117   -0.8278    1.1023 C   0  0  0  0  0  0  0  0  0  0  0  0
    4.5207   -0.7009    0.9158 C   0  0  0  0  0  0  0  0  0  0  0  0
    5.2795   -1.4517    1.9958 C   0  0  0  0  0  0  0  0  0  0  0  0
    6.7749   -1.2929    1.7632 C   0  0  0  0  0  0  0  0  0  0  0  0
    7.5446   -2.0394    2.8335 C   0  0  0  0  0  0  0  0  0  0  0  0
    9.0361   -1.8831    2.6079 C   0  0  0  0  0  0  0  0  0  0  0  0
    9.7955   -2.6342    3.6848 C   0  0  0  0  0  0  0  0  0  0  0  0
   11.2871   -2.4803    3.4593 C   0  0  0  0  0  0  0  0  0  0  0  0
   12.0499   -3.2284    4.5352 C   0  0  0  0  0  0  0  0  0  0  0  0
   13.5417   -3.0762    4.3088 C   0  0  0  0  0  0  0  0  0  0  0  0
   14.3041   -3.8263    5.3841 C   0  0  0  0  0  0  0  0  0  0  0  0
   15.7961   -3.6728    5.1591 C   0  0  0  0  0  0  0  0  0  0  0  0
   16.5585   -4.4228    6.2343 C   0  0  0  0  0  0  0  0  0  0  0  0
   18.0505   -4.2709    6.0082 C   0  0  0  0  0  0  0  0  0  0  0  0
   18.8130   -5.0226    7.0823 C   0  0  0  0  0  0  0  0  0  0  0  0
   20.3049   -4.8690    6.8573 C   0  0  0  0  0  0  0  0  0  0  0  0
   21.0674   -5.6223    7.9302 C   0  0  0  0  0  0  0  0  0  0  0  0
   22.5593   -5.4671    7.7064 C   0  0  0  0  0  0  0  0  0  0  0  0
   23.3218   -6.2188    8.7805 C   0  0  0  0  0  0  0  0  0  0  0  0
   24.8137   -6.0620    8.5578 C   0  0  0  0  0  0  0  0  0  0  0  0
   25.5762   -6.8153    9.6307 C   0  0  0  0  0  0  0  0  0  0  0  0
   27.0681   -6.6601    9.4069 C   0  0  0  0  0  0  0  0  0  0  0  0
   27.8306   -7.4134   10.4798 C   0  0  0  0  0  0  0  0  0  0  0  0
   29.3225   -7.2566   10.2571 C   0  0  0  0  0  0  0  0  0  0  0  0
   30.0850   -8.0099   11.3300 C   0  0  0  0  0  0  0  0  0  0  0  0
   31.5769   -7.8530   11.1074 C   0  0  0  0  0  0  0  0  0  0  0  0
   32.3394   -8.6063   12.1803 C   0  0  0  0  0  0  0  0  0  0  0  0
   33.8313   -8.4511   11.9564 C   0  0  0  0  0  0  0  0  0  0  0  0
   34.5938   -9.2045   13.0294 C   0  0  0  0  0  0  0  0  0  0  0  0
   36.0858   -9.0493   12.8055 C   0  0  0  0  0  0  0  0  0  0  0  0
   36.8482   -9.8026   13.8785 C   0  0  0  0  0  0  0  0  0  0  0  0
   38.3402   -9.6457   13.6558 C   0  0  0  0  0  0  0  0  0  0  0  0
   39.1026  -10.3974   14.7298 C   0  0  0  0  0  0  0  0  0  0  0  0
   40.5946  -10.2422   14.5060 C   0  0  0  0  0  0  0  0  0  0  0  0
   41.3570  -10.9955   15.5789 C   0  0  0  0  0  0  0  0  0  0  0  0
   42.8490  -10.8387   15.3563 C   0  0  0  0  0  0  0  0  0  0  0  0
   43.6115  -11.5936   16.4280 C   0  0  0  0  0  0  0  0  0  0  0  0
   45.1034  -11.4368   16.2054 C   0  0  0  0  0  0  0  0  0  0  0  0
   45.8659  -12.1918   17.2771 C   0  0  0  0  0  0  0  0  0  0  0  0
   47.3578  -12.0349   17.0544 C   0  0  0  0  0  0  0  0  0  0  0  0
   48.1203  -12.7899   18.1262 C   0  0  0  0  0  0  0  0  0  0  0  0
   49.6122  -12.6330   17.9035 C   0  0  0  0  0  0  0  0  0  0  0  0
   50.3747  -13.3880   18.9753 C   0  0  0  0  0  0  0  0  0  0  0  0
   51.8666  -13.2312   18.7526 C   0  0  0  0  0  0  0  0  0  0  0  0
   52.6291  -13.9861   19.8244 C   0  0  0  0  0  0  0  0  0  0  0  0
   54.1210  -13.8309   19.6005 C   0  0  0  0  0  0  0  0  0  0  0  0
   54.8835  -14.5842   20.6735 C   0  0  0  0  0  0  0  0  0  0  0  0
   56.3754  -14.4274   20.4508 C   0  0  0  0  0  0  0  0  0  0  0  0
   57.1379  -15.1807   21.5237 C   0  0  0  0  0  0  0  0  0  0  0  0
   58.6298  -15.0255   21.2999 C   0  0  0  0  0  0  0  0  0  0  0  0
   59.3923  -15.7772   22.3739 C   0  0  0  0  0  0  0  0  0  0  0  0
   60.8842  -15.6203   22.1513 C   0  0  0  0  0  0  0  0  0  0  0  0
   61.6467  -16.3720   23.2253 C   0  0  0  0  0  0  0  0  0  0  0  0
   63.1386  -16.2135   23.0038 C   0  0  0  0  0  0  0  0  0  0  0  0
   63.9011  -16.9652   24.0779 C   0  0  0  0  0  0  0  0  0  0  0  0
   65.3931  -16.8066   23.8564 C   0  0  0  0  0  0  0  0  0  0  0  0
   66.1555  -17.5583   24.9305 C   0  0  0  0  0  0  0  0  0  0  0  0
   67.6475  -17.3998   24.7089 C   0  0  0  0  0  0  0  0  0  0  0  0
   68.4099  -18.1515   25.7830 C   0  0  0  0  0  0  0  0  0  0  0  0
   69.9019  -17.9930   25.5615 C   0  0  0  0  0  0  0  0  0  0  0  0
   70.6644  -18.7447   26.6356 C   0  0  0  0  0  0  0  0  0  0  0  0
   72.1563  -18.5861   26.4141 C   0  0  0  0  0  0  0  0  0  0  0  0
   72.9188  -19.3378   27.4882 C   0  0  0  0  0  0  0  0  0  0  0  0
   74.4107  -19.1777   27.2678 C   0  0  0  0  0  0  0  0  0  0  0  0
   75.1733  -19.9294   28.3419 C   0  0  0  0  0  0  0  0  0  0  0  0
   76.6652  -19.7692   28.1215 C   0  0  0  0  0  0  0  0  0  0  0  0
   77.4278  -20.5209   29.1957 C   0  0  0  0  0  0  0  0  0  0  0  0
   78.9200  -20.3608   28.9754 C   0  0  0  0  0  0  0  0  0  0  0  0
   79.6830  -21.1126   30.0496 C   0  0  0  0  0  0  0  0  0  0  0  0
   81.1757  -20.9543   29.8284 C   0  0  0  0  0  0  0  0  0  0  0  0
   81.9406  -21.7059   30.9024 C   0  0  0  0  0  0  0  0  0  0  0  0
   83.4352  -21.5480   30.6817 C   0  0  0  0  0  0  0  0  0  0  0  0
   84.2031  -22.2981   31.7571 C   0  0  0  0  0  0  0  0  0  0  0  0
   85.7022  -22.1474   31.5433 C   0  0  0  0  0  0  0  0  0  0  0  0
   86.4650  -22.8967   32.6175 C   0  0  0  0  0  0  0  0  0  0  0  0
    0.3304    0.4627   -0.7505 H   0  0  0  0  0  0  0  0  0  0  0  0
    0.3834    0.3292    1.0169 H   0  0  0  0  0  0  0  0  0  0  0  0
    0.3808   -1.1464   -0.0071 H   0  0  0  0  0  0  0  0  0  0  0  0
    2.7257   -1.8839    1.0616 H   0  0  0  0  0  0  0  0  0  0  0  0
    2.7283   -0.4194    2.0779 H   0  0  0  0  0  0  0  0  0  0  0  0
    4.8169    0.3555    0.9406 H   0  0  0  0  0  0  0  0  0  0  0  0
    4.8144   -1.0944   -0.0657 H   0  0  0  0  0  0  0  0  0  0  0  0
    5.0095   -2.5145    1.9769 H   0  0  0  0  0  0  0  0  0  0  0  0
    5.0120   -1.0616    2.9853 H   0  0  0  0  0  0  0  0  0  0  0  0
    7.0467   -0.2297    1.7795 H   0  0  0  0  0  0  0  0  0  0  0  0
    7.0438   -1.6782    0.7714 H   0  0  0  0  0  0  0  0  0  0  0  0
    7.2733   -3.1018    2.8135 H   0  0  0  0  0  0  0  0  0  0  0  0
    7.2741   -1.6530    3.8235 H   0  0  0  0  0  0  0  0  0  0  0  0
    9.3106   -0.8211    2.6284 H   0  0  0  0  0  0  0  0  0  0  0  0
    9.3097   -2.2699    1.6185 H   0  0  0  0  0  0  0  0  0  0  0  0
    9.5211   -3.6961    3.6655 H   0  0  0  0  0  0  0  0  0  0  0  0
    9.5240   -2.2465    4.6744 H   0  0  0  0  0  0  0  0  0  0  0  0
   11.5601   -1.4180    3.4765 H   0  0  0  0  0  0  0  0  0  0  0  0
   11.5575   -2.8687    2.4697 H   0  0  0  0  0  0  0  0  0  0  0  0
   11.7753   -4.2902    4.5184 H   0  0  0  0  0  0  0  0  0  0  0  0
   11.7800   -2.8385    5.5244 H   0  0  0  0  0  0  0  0  0  0  0  0
   13.8164   -2.0144    4.3270 H   0  0  0  0  0  0  0  0  0  0  0  0
   13.8114   -3.4648    3.3190 H   0  0  0  0  0  0  0  0  0  0  0  0
   14.0303   -4.8884    5.3649 H   0  0  0  0  0  0  0  0  0  0  0  0
   14.0333   -3.4387    6.3740 H   0  0  0  0  0  0  0  0  0  0  0  0
   16.0699   -2.6107    5.1783 H   0  0  0  0  0  0  0  0  0  0  0  0
   16.0668   -4.0603    4.1692 H   0  0  0  0  0  0  0  0  0  0  0  0
   16.2837   -5.4847    6.2161 H   0  0  0  0  0  0  0  0  0  0  0  0
   16.2888   -4.0343    7.2242 H   0  0  0  0  0  0  0  0  0  0  0  0
   18.3255   -3.2091    6.0278 H   0  0  0  0  0  0  0  0  0  0  0  0
   18.3200   -4.6581    5.0178 H   0  0  0  0  0  0  0  0  0  0  0  0
   18.5389   -6.0846    7.0617 H   0  0  0  0  0  0  0  0  0  0  0  0
   18.5424   -4.6364    8.0728 H   0  0  0  0  0  0  0  0  0  0  0  0
   20.5791   -3.8071    6.8793 H   0  0  0  0  0  0  0  0  0  0  0  0
   20.5753   -5.2539    5.8662 H   0  0  0  0  0  0  0  0  0  0  0  0
   20.7942   -6.6845    7.9072 H   0  0  0  0  0  0  0  0  0  0  0  0
   20.7959   -5.2384    8.9213 H   0  0  0  0  0  0  0  0  0  0  0  0
   22.8322   -4.4049    7.7279 H   0  0  0  0  0  0  0  0  0  0  0  0
   22.8310   -5.8524    6.7158 H   0  0  0  0  0  0  0  0  0  0  0  0
   23.0499   -7.2813    8.7579 H   0  0  0  0  0  0  0  0  0  0  0  0
   23.0491   -5.8346    9.7711 H   0  0  0  0  0  0  0  0  0  0  0  0
   25.0858   -4.9995    8.5817 H   0  0  0  0  0  0  0  0  0  0  0  0
   25.0862   -6.4449    7.5666 H   0  0  0  0  0  0  0  0  0  0  0  0
   25.3031   -7.8775    9.6077 H   0  0  0  0  0  0  0  0  0  0  0  0
   25.3047   -6.4314   10.6218 H   0  0  0  0  0  0  0  0  0  0  0  0
   27.3412   -5.5979    9.4299 H   0  0  0  0  0  0  0  0  0  0  0  0
   27.3396   -7.0440    8.4157 H   0  0  0  0  0  0  0  0  0  0  0  0
   27.5585   -8.4759   10.4558 H   0  0  0  0  0  0  0  0  0  0  0  0
   27.5581   -7.0305   11.4710 H   0  0  0  0  0  0  0  0  0  0  0  0
   29.5946   -6.1941   10.2811 H   0  0  0  0  0  0  0  0  0  0  0  0
   29.5950   -7.6395    9.2659 H   0  0  0  0  0  0  0  0  0  0  0  0
   29.8129   -9.0723   11.3061 H   0  0  0  0  0  0  0  0  0  0  0  0
   29.8125   -7.6269   12.3213 H   0  0  0  0  0  0  0  0  0  0  0  0
   31.8490   -6.7906   11.1313 H   0  0  0  0  0  0  0  0  0  0  0  0
   31.8494   -8.2359   10.1161 H   0  0  0  0  0  0  0  0  0  0  0  0
   32.0663   -9.6685   12.1573 H   0  0  0  0  0  0  0  0  0  0  0  0
   32.0679   -8.2224   13.1714 H   0  0  0  0  0  0  0  0  0  0  0  0
   34.1045   -7.3889   11.9794 H   0  0  0  0  0  0  0  0  0  0  0  0
   34.1028   -8.8350   10.9653 H   0  0  0  0  0  0  0  0  0  0  0  0
   34.3207  -10.2667   13.0064 H   0  0  0  0  0  0  0  0  0  0  0  0
   34.3224   -8.8206   14.0205 H   0  0  0  0  0  0  0  0  0  0  0  0
   36.3589   -7.9870   12.8285 H   0  0  0  0  0  0  0  0  0  0  0  0
   36.3572   -9.4332   11.8144 H   0  0  0  0  0  0  0  0  0  0  0  0
   36.5761  -10.8650   13.8545 H   0  0  0  0  0  0  0  0  0  0  0  0
   36.5757   -9.4196   14.8697 H   0  0  0  0  0  0  0  0  0  0  0  0
   38.6121   -8.5832   13.6783 H   0  0  0  0  0  0  0  0  0  0  0  0
   38.6129  -10.0300   12.6651 H   0  0  0  0  0  0  0  0  0  0  0  0
   38.8297  -11.4597   14.7083 H   0  0  0  0  0  0  0  0  0  0  0  0
   38.8310  -10.0122   15.7204 H   0  0  0  0  0  0  0  0  0  0  0  0
   40.8677   -9.1800   14.5290 H   0  0  0  0  0  0  0  0  0  0  0  0
   40.8661  -10.6261   13.5149 H   0  0  0  0  0  0  0  0  0  0  0  0
   41.0849  -12.0580   15.5550 H   0  0  0  0  0  0  0  0  0  0  0  0
   41.0846  -10.6126   16.5702 H   0  0  0  0  0  0  0  0  0  0  0  0
   43.1213   -9.7763   15.3816 H   0  0  0  0  0  0  0  0  0  0  0  0
   43.1213  -11.2203   14.3645 H   0  0  0  0  0  0  0  0  0  0  0  0
   43.3392  -12.6560   16.4026 H   0  0  0  0  0  0  0  0  0  0  0  0
   43.3391  -11.2120   17.4198 H   0  0  0  0  0  0  0  0  0  0  0  0
   45.3757  -10.3744   16.2307 H   0  0  0  0  0  0  0  0  0  0  0  0
   45.3757  -11.8184   15.2136 H   0  0  0  0  0  0  0  0  0  0  0  0
   45.5936  -13.2541   17.2517 H   0  0  0  0  0  0  0  0  0  0  0  0
   45.5936  -11.8102   18.2689 H   0  0  0  0  0  0  0  0  0  0  0  0
   47.6301  -10.9725   17.0798 H   0  0  0  0  0  0  0  0  0  0  0  0
   47.6301  -12.4165   16.0626 H   0  0  0  0  0  0  0  0  0  0  0  0
   47.8480  -13.8522   18.1008 H   0  0  0  0  0  0  0  0  0  0  0  0
   47.8480  -12.4083   19.1180 H   0  0  0  0  0  0  0  0  0  0  0  0
   49.8845  -11.5707   17.9289 H   0  0  0  0  0  0  0  0  0  0  0  0
   49.8845  -13.0146   16.9117 H   0  0  0  0  0  0  0  0  0  0  0  0
   50.1024  -14.4504   18.9499 H   0  0  0  0  0  0  0  0  0  0  0  0
   50.1024  -13.0064   19.9671 H   0  0  0  0  0  0  0  0  0  0  0  0
   52.1389  -12.1688   18.7780 H   0  0  0  0  0  0  0  0  0  0  0  0
   52.1389  -13.6128   17.7608 H   0  0  0  0  0  0  0  0  0  0  0  0
   52.3558  -15.0483   19.8000 H   0  0  0  0  0  0  0  0  0  0  0  0
   52.3578  -13.6035   20.8161 H   0  0  0  0  0  0  0  0  0  0  0  0
   54.3942  -12.7687   19.6236 H   0  0  0  0  0  0  0  0  0  0  0  0
   54.3925  -14.2148   18.6094 H   0  0  0  0  0  0  0  0  0  0  0  0
   54.6114  -15.6467   20.6495 H   0  0  0  0  0  0  0  0  0  0  0  0
   54.6110  -14.2013   21.6647 H   0  0  0  0  0  0  0  0  0  0  0  0
   56.6475  -13.3649   20.4747 H   0  0  0  0  0  0  0  0  0  0  0  0
   56.6479  -14.8103   19.4595 H   0  0  0  0  0  0  0  0  0  0  0  0
   56.8648  -16.2429   21.5007 H   0  0  0  0  0  0  0  0  0  0  0  0
   56.8664  -14.7968   22.5148 H   0  0  0  0  0  0  0  0  0  0  0  0
   58.9027  -13.9632   21.3215 H   0  0  0  0  0  0  0  0  0  0  0  0
   58.9015  -15.4107   20.3093 H   0  0  0  0  0  0  0  0  0  0  0  0
   59.1204  -16.8397   22.3514 H   0  0  0  0  0  0  0  0  0  0  0  0
   59.1196  -15.3929   23.3646 H   0  0  0  0  0  0  0  0  0  0  0  0
   61.1561  -14.5578   22.1738 H   0  0  0  0  0  0  0  0  0  0  0  0
   61.1570  -16.0046   21.1606 H   0  0  0  0  0  0  0  0  0  0  0  0
   61.3759  -17.4348   23.2019 H   0  0  0  0  0  0  0  0  0  0  0  0
   61.3729  -15.9887   24.2161 H   0  0  0  0  0  0  0  0  0  0  0  0
   63.4094  -15.1507   23.0273 H   0  0  0  0  0  0  0  0  0  0  0  0
   63.4125  -16.5968   22.0131 H   0  0  0  0  0  0  0  0  0  0  0  0
   63.6304  -18.0280   24.0545 H   0  0  0  0  0  0  0  0  0  0  0  0
   63.6273  -16.5819   25.0686 H   0  0  0  0  0  0  0  0  0  0  0  0
   65.6638  -15.7438   23.8798 H   0  0  0  0  0  0  0  0  0  0  0  0
   65.6669  -17.1899   22.8657 H   0  0  0  0  0  0  0  0  0  0  0  0
   65.8848  -18.6211   24.9070 H   0  0  0  0  0  0  0  0  0  0  0  0
   65.8817  -17.1750   25.9212 H   0  0  0  0  0  0  0  0  0  0  0  0
   67.9182  -16.3370   24.7324 H   0  0  0  0  0  0  0  0  0  0  0  0
   67.9213  -17.7831   23.7182 H   0  0  0  0  0  0  0  0  0  0  0  0
   68.1392  -19.2143   25.7596 H   0  0  0  0  0  0  0  0  0  0  0  0
   68.1361  -17.7682   26.7738 H   0  0  0  0  0  0  0  0  0  0  0  0
   70.1726  -16.9302   25.5849 H   0  0  0  0  0  0  0  0  0  0  0  0
   70.1757  -18.3763   24.5708 H   0  0  0  0  0  0  0  0  0  0  0  0
   70.3936  -19.8075   26.6121 H   0  0  0  0  0  0  0  0  0  0  0  0
   70.3905  -18.3614   27.6263 H   0  0  0  0  0  0  0  0  0  0  0  0
   72.4270  -17.5233   26.4375 H   0  0  0  0  0  0  0  0  0  0  0  0
   72.4301  -18.9694   25.4233 H   0  0  0  0  0  0  0  0  0  0  0  0
   72.6490  -20.4009   27.4638 H   0  0  0  0  0  0  0  0  0  0  0  0
   72.6439  -18.9555   28.4790 H   0  0  0  0  0  0  0  0  0  0  0  0
   74.6804  -18.1146   27.2922 H   0  0  0  0  0  0  0  0  0  0  0  0
   74.6856  -19.5600   26.2770 H   0  0  0  0  0  0  0  0  0  0  0  0
   74.9035  -20.9924   28.3175 H   0  0  0  0  0  0  0  0  0  0  0  0
   74.8983  -19.5470   29.3327 H   0  0  0  0  0  0  0  0  0  0  0  0
   76.9349  -18.7061   28.1459 H   0  0  0  0  0  0  0  0  0  0  0  0
   76.9401  -20.1515   27.1307 H   0  0  0  0  0  0  0  0  0  0  0  0
   77.1580  -21.5839   29.1712 H   0  0  0  0  0  0  0  0  0  0  0  0
   77.1528  -20.1385   30.1864 H   0  0  0  0  0  0  0  0  0  0  0  0
   79.1894  -19.2977   28.9997 H   0  0  0  0  0  0  0  0  0  0  0  0
   79.1946  -20.7431   27.9845 H   0  0  0  0  0  0  0  0  0  0  0  0
   79.4118  -22.1752   30.0260 H   0  0  0  0  0  0  0  0  0  0  0  0
   79.4087  -20.7292   31.0402 H   0  0  0  0  0  0  0  0  0  0  0  0
   81.4455  -19.8913   29.8515 H   0  0  0  0  0  0  0  0  0  0  0  0
   81.4486  -21.3373   28.8374 H   0  0  0  0  0  0  0  0  0  0  0  0
   81.6685  -22.7684   30.8788 H   0  0  0  0  0  0  0  0  0  0  0  0
   81.6655  -21.3225   31.8928 H   0  0  0  0  0  0  0  0  0  0  0  0
   83.7032  -20.4845   30.7030 H   0  0  0  0  0  0  0  0  0  0  0  0
   83.7066  -21.9320   29.6908 H   0  0  0  0  0  0  0  0  0  0  0  0
   83.9271  -23.3596   31.7354 H   0  0  0  0  0  0  0  0  0  0  0  0
   83.9257  -21.9123   32.7459 H   0  0  0  0  0  0  0  0  0  0  0  0
   85.9778  -21.0865   31.5667 H   0  0  0  0  0  0  0  0  0  0  0  0
   85.9791  -22.5346   30.5557 H   0  0  0  0  0  0  0  0  0  0  0  0
   86.2161  -22.5081   33.6102 H   0  0  0  0  0  0  0  0  0  0  0  0
   87.5416  -22.7881   32.4635 H   0  0  0  0  0  0  0  0  0  0  0  0
   86.2175  -23.9628   32.5946 H   0  0  0  0  0  0  0  0  0  0  0  0
  1  2  2  0  0  0  0
  2  3  1  0  0  0  0
  2  4  1  0  0  0  0
  3 79  1  0  0  0  0
  3 80  1  0  0  0  0
  3 81  1  0  0  0  0
  4  5  1  0  0  0  0
  4 82  1  0  0  0  0
  4 83  1  0  0  0  0
  5  6  1  0  0  0  0
  5 84  1  0  0  0  0
  5 85  1  0  0  0  0
  6  7  1  0  0  0  0
  6 86  1  0  0  0  0
  6 87  1  0  0  0  0
  7  8  1  0  0  0  0
  7 88  1  0  0  0  0
  7 89  1  0  0  0  0
  8  9  1  0  0  0  0
  8 90  1  0  0  0  0
  8 91  1  0  0  0  0
  9 10  1  0  0  0  0
  9 92  1  0  0  0  0
  9 93  1  0  0  0  0
 10 11  1  0  0  0  0
 10 94  1  0  0  0  0
 10 95  1  0  0  0  0
 11 12  1  0  0  0  0
 11 96  1  0  0  0  0
 11 97  1  0  0  0  0
 12 13  1  0  0  0  0
 12 98  1  0  0  0  0
 12 99  1  0  0  0  0
 13 14  1  0  0  0  0
 13100  1  0  0  0  0
 13101  1  0  0  0  0
 14 15  1  0  0  0  0
 14102  1  0  0  0  0
 14103  1  0  0  0  0
 15 16  1  0  0  0  0
 15104  1  0  0  0  0
 15105  1  0  0  0  0
 16 17  1  0  0  0  0
 16106  1  0  0  0  0
 16107  1  0  0  0  0
 17 18  1  0  0  0  0
 17108  1  0  0  0  0
 17109  1  0  0  0  0
 18 19  1  0  0  0  0
 18110  1  0  0  0  0
 18111  1  0  0  0  0
 19 20  1  0  0  0  0
 19112  1  0  0  0  0
 19113  1  0  0  0  0
 20 21  1  0  0  0  0
 20114  1  0  0  0  0
 20115  1  0  0  0  0
 21 22  1  0  0  0  0
 21116  1  0  0  0  0
 21117  1  0  0  0  0
 22 23  1  0  0  0  0
 22118  1  0  0  0  0
 22119  1  0  0  0  0
 23 24  1  0  0  0  0
 23120  1  0  0  0  0
 23121  1  0  0  0  0
 24 25  1  0  0  0  0
 24122  1  0  0  0  0
 24123  1  0  0  0  0
 25 26  1  0  0  0  0
 25124  1  0  0  0  0
 25125  1  0  0  0  0
 26 27  1  0  0  0  0
 26126  1  0  0  0  0
 26127  1  0  0  0  0
 27 28  1  0  0  0  0
 27128  1  0  0  0  0
 27129  1  0  0  0  0
 28 29  1  0  0  0  0
 28130  1  0  0  0  0
 28131  1  0  0  0  0
 29 30  1  0  0  0  0
 29132  1  0  0  0  0
 29133  1  0  0  0  0
 30 31  1  0  0  0  0
 30134  1  0  0  0  0
 30135  1  0  0  0  0
 31 32  1  0  0  0  0
 31136  1  0  0  0  0
 31137  1  0  0  0  0
 32 33  1  0  0  0  0
 32138  1  0  0  0  0
 32139  1  0  0  0  0
 33 34  1  0  0  0  0
 33140  1  0  0  0  0
 33141  1  0  0  0  0
 34 35  1  0  0  0  0
 34142  1  0  0  0  0
 34143  1  0  0  0  0
 35 36  1  0  0  0  0
 35144  1  0  0  0  0
 35145  1  0  0  0  0
 36 37  1  0  0  0  0
 36146  1  0  0  0  0
 36147  1  0  0  0  0
 37 38  1  0  0  0  0
 37148  1  0  0  0  0
 37149  1  0  0  0  0
 38 39  1  0  0  0  0
 38150  1  0  0  0  0
 38151  1  0  0  0  0
 39 40  1  0  0  0  0
 39152  1  0  0  0  0
 39153  1  0  0  0  0
 40 41  1  0  0  0  0
 40154  1  0  0  0  0
 40155  1  0  0  0  0
 41 42  1  0  0  0  0
 41156  1  0  0  0  0
 41157  1  0  0  0  0
 42 43  1  0  0  0  0
 42158  1  0  0  0  0
 42159  1  0  0  0  0
 43 44  1  0  0  0  0
 43160  1  0  0  0  0
 43161  1  0  0  0  0
 44 45  1  0  0  0  0
 44162  1  0  0  0  0
 44163  1  0  0  0  0
 45 46  1  0  0  0  0
 45164  1  0  0  0  0
 45165  1  0  0  0  0
 46 47  1  0  0  0  0
 46166  1  0  0  0  0
 46167  1  0  0  0  0
 47 48  1  0  0  0  0
 47168  1  0  0  0  0
 47169  1  0  0  0  0
 48 49  1  0  0  0  0
 48170  1  0  0  0  0
 48171  1  0  0  0  0
 49 50  1  0  0  0  0
 49172  1  0  0  0  0
 49173  1  0  0  0  0
 50 51  1  0  0  0  0
 50174  1  0  0  0  0
 50175  1  0  0  0  0
 51 52  1  0  0  0  0
 51176  1  0  0  0  0
 51177  1  0  0  0  0
 52 53  1  0  0  0  0
 52178  1  0  0  0  0
 52179  1  0  0  0  0
 53 54  1  0  0  0  0
 53180  1  0  0  0  0
 53181  1  0  0  0  0
 54 55  1  0  0  0  0
 54182  1  0  0  0  0
 54183  1  0  0  0  0
 55 56  1  0  0  0  0
 55184  1  0  0  0  0
 55185  1  0  0  0  0
 56 57  1  0  0  0  0
 56186  1  0  0  0  0
 56187  1  0  0  0  0
 57 58  1  0  0  0  0
 57188  1  0  0  0  0
 57189  1  0  0  0  0
 58 59  1  0  0  0  0
 58190  1  0  0  0  0
 58191  1  0  0  0  0
 59 60  1  0  0  0  0
 59192  1  0  0  0  0
 59193  1  0  0  0  0
 60 61  1  0  0  0  0
 60194  1  0  0  0  0
 60195  1  0  0  0  0
 61 62  1  0  0  0  0
 61196  1  0  0  0  0
 61197  1  0  0  0  0
 62 63  1  0  0  0  0
 62198  1  0  0  0  0
 62199  1  0  0  0  0
 63 64  1  0  0  0  0
 63200  1  0  0  0  0
 63201  1  0  0  0  0
 64 65  1  0  0  0  0
 64202  1  0  0  0  0
 64203  1  0  0  0  0
 65 66  1  0  0  0  0
 65204  1  0  0  0  0
 65205  1  0  0  0  0
 66 67  1  0  0  0  0
 66206  1  0  0  0  0
 66207  1  0  0  0  0
 67 68  1  0  0  0  0
 67208  1  0  0  0  0
 67209  1  0  0  0  0
 68 69  1  0  0  0  0
 68210  1  0  0  0  0
 68211  1  0  0  0  0
 69 70  1  0  0  0  0
 69212  1  0  0  0  0
 69213  1  0  0  0  0
 70 71  1  0  0  0  0
 70214  1  0  0  0  0
 70215  1  0  0  0  0
 71 72  1  0  0  0  0
 71216  1  0  0  0  0
 71217  1  0  0  0  0
 72 73  1  0  0  0  0
 72218  1  0  0  0  0
 72219  1  0  0  0  0
 73 74  1  0  0  0  0
 73220  1  0  0  0  0
 73221  1  0  0  0  0
 74 75  1  0  0  0  0
 74222  1  0  0  0  0
 74223  1  0  0  0  0
 75 76  1  0  0  0  0
 75224  1  0  0  0  0
 75225  1  0  0  0  0
 76 77  1  0  0  0  0
 76226  1  0  0  0  0
 76227  1  0  0  0  0
 77 78  1  0  0  0  0
 77228  1  0  0  0  0
 77229  1  0  0  0  0
 78230  1  0  0  0  0
 78231  1  0  0  0  0
 78232  1  0  0  0  0
M  END
$$$$
