
 OpenBabel04232216433D

 63 64  0  0  0  0  0  0  0  0999 V2000
    7.8363    0.0116    0.2728 C   0  0  0  0  0  0  0  0  0  0  0  0
    6.2788    0.1495    0.4189 C   0  0  0  0  0  0  0  0  0  0  0  0
    5.2835    0.1620   -0.5088 C   0  0  0  0  0  0  0  0  0  0  0  0
    5.5075   -0.0964   -1.9193 C   0  0  0  0  0  0  0  0  0  0  0  0
    5.7432    0.9136   -2.7830 C   0  0  0  0  0  0  0  0  0  0  0  0
    7.1660    1.1901   -2.8975 C   0  0  0  0  0  0  0  0  0  0  0  0
    7.9339    1.2962   -3.9853 C   0  0  0  0  0  0  0  0  0  0  0  0
    9.4327    1.2770   -3.8140 C   0  0  0  0  0  0  0  0  0  0  0  0
   10.1824    1.6778   -5.1008 C   0  0  0  0  0  0  0  0  0  0  0  0
   11.6918    1.6127   -5.0551 C   0  0  0  0  0  0  0  0  0  0  0  0
   12.5259    1.9229   -6.0813 C   0  0  0  0  0  0  0  0  0  0  0  0
   14.0695    1.8367   -6.0212 C   0  0  0  0  0  0  0  0  0  0  0  0
   14.8026    2.2101   -7.3233 C   0  0  0  0  0  0  0  0  0  0  0  0
   16.3209    2.0535   -7.6006 C   0  0  0  0  0  0  0  0  0  0  0  0
   16.5779    2.1104   -8.9706 N   0  0  0  0  0  0  0  0  0  0  0  0
   16.0760    3.0798   -9.6117 N   0  0  0  0  0  0  0  0  0  0  0  0
   17.0408    3.6658  -10.3976 C   0  0  0  0  0  0  0  0  0  0  0  0
   18.0555    4.2253   -9.7292 C   0  0  0  0  0  0  0  0  0  0  0  0
   19.4493    4.0722  -10.0259 C   0  0  0  0  0  0  0  0  0  0  0  0
   20.1142    3.4605   -9.0204 C   0  0  0  0  0  0  0  0  0  0  0  0
   19.7386    2.2528   -8.2131 C   0  0  0  0  0  0  0  0  0  0  0  0
   18.8157    1.6711   -7.3686 C   0  0  0  0  0  0  0  0  0  0  0  0
   17.3800    1.8465   -6.7309 C   0  0  0  0  0  0  0  0  0  0  0  0
   17.1070    1.7345   -5.0442 C   0  0  0  0  0  0  0  0  0  0  0  0
   16.4400    0.9776   -3.6029 C   0  0  0  0  0  0  0  0  0  0  0  0
   15.1483    0.9575   -3.0517 C   0  0  0  0  0  0  0  0  0  0  0  0
   14.3481    0.4691   -1.7172 C   0  0  0  0  0  0  0  0  0  0  0  0
   12.9484    0.4850   -1.5680 C   0  0  0  0  0  0  0  0  0  0  0  0
   11.6703    0.2148   -0.6363 C   0  0  0  0  0  0  0  0  0  0  0  0
   10.7036   -0.0558    0.3106 C   0  0  0  0  0  0  0  0  0  0  0  0
    9.1552   -0.2178    0.6366 C   0  0  0  0  0  0  0  0  0  0  0  0
    7.5222   -0.6652    1.1316 H   0  0  0  0  0  0  0  0  0  0  0  0
    5.8638    0.1785    1.4435 H   0  0  0  0  0  0  0  0  0  0  0  0
    4.2270    0.2358   -0.2172 H   0  0  0  0  0  0  0  0  0  0  0  0
    6.1973   -0.9424   -1.9748 H   0  0  0  0  0  0  0  0  0  0  0  0
    5.1054    1.7985   -2.8143 H   0  0  0  0  0  0  0  0  0  0  0  0
    7.6855    1.1544   -1.9478 H   0  0  0  0  0  0  0  0  0  0  0  0
    7.4822    1.3118   -4.9824 H   0  0  0  0  0  0  0  0  0  0  0  0
    9.7077    0.2533   -3.5182 H   0  0  0  0  0  0  0  0  0  0  0  0
    9.7151    1.9318   -2.9768 H   0  0  0  0  0  0  0  0  0  0  0  0
    9.8827    2.7003   -5.3482 H   0  0  0  0  0  0  0  0  0  0  0  0
    9.8405    1.0072   -5.8952 H   0  0  0  0  0  0  0  0  0  0  0  0
   12.1232    1.2835   -4.1366 H   0  0  0  0  0  0  0  0  0  0  0  0
   12.1005    2.2435   -7.0119 H   0  0  0  0  0  0  0  0  0  0  0  0
   14.3368    0.8097   -5.7499 H   0  0  0  0  0  0  0  0  0  0  0  0
   14.4084    2.5493   -5.2634 H   0  0  0  0  0  0  0  0  0  0  0  0
   14.5748    3.2675   -7.5081 H   0  0  0  0  0  0  0  0  0  0  0  0
   14.3019    1.6310   -8.1106 H   0  0  0  0  0  0  0  0  0  0  0  0
   17.0692    3.3941  -11.4471 H   0  0  0  0  0  0  0  0  0  0  0  0
   17.9023    4.3964   -8.6631 H   0  0  0  0  0  0  0  0  0  0  0  0
   19.6714    3.7824  -11.0611 H   0  0  0  0  0  0  0  0  0  0  0  0
   20.6584    4.1771   -8.3932 H   0  0  0  0  0  0  0  0  0  0  0  0
   20.5928    1.5875   -8.4457 H   0  0  0  0  0  0  0  0  0  0  0  0
   19.1584    0.6624   -7.1084 H   0  0  0  0  0  0  0  0  0  0  0  0
   16.4527    0.9434   -5.4430 H   0  0  0  0  0  0  0  0  0  0  0  0
   16.7280    2.7477   -4.8890 H   0  0  0  0  0  0  0  0  0  0  0  0
   17.2700    0.5726   -3.0167 H   0  0  0  0  0  0  0  0  0  0  0  0
   14.3912    1.4292   -3.6496 H   0  0  0  0  0  0  0  0  0  0  0  0
   15.0157    0.1659   -0.9030 H   0  0  0  0  0  0  0  0  0  0  0  0
   12.4588    0.8083   -2.4647 H   0  0  0  0  0  0  0  0  0  0  0  0
   12.5123    0.0543    0.1236 H   0  0  0  0  0  0  0  0  0  0  0  0
   11.1136   -0.2598    1.3113 H   0  0  0  0  0  0  0  0  0  0  0  0
    9.2060   -0.7012    1.6336 H   0  0  0  0  0  0  0  0  0  0  0  0
  1  2  1  0  0  0  0
  1 31  2  3  0  0  0
  1 32  1  0  0  0  0
  2  3  2  3  0  0  0
  2 33  1  0  0  0  0
  3  4  1  0  0  0  0
  3 34  1  0  0  0  0
  4  5  2  3  0  0  0
  4 35  1  0  0  0  0
  5  6  1  0  0  0  0
  5 36  1  0  0  0  0
  6  7  2  3  0  0  0
  6 37  1  0  0  0  0
  7  8  1  0  0  0  0
  7 38  1  0  0  0  0
  8  9  1  0  0  0  0
  8 39  1  0  0  0  0
  8 40  1  0  0  0  0
  9 10  1  0  0  0  0
  9 41  1  0  0  0  0
  9 42  1  0  0  0  0
 10 11  2  3  0  0  0
 10 43  1  0  0  0  0
 11 12  1  0  0  0  0
 11 44  1  0  0  0  0
 12 13  1  0  0  0  0
 12 45  1  0  0  0  0
 12 46  1  0  0  0  0
 13 14  1  0  0  0  0
 13 47  1  0  0  0  0
 13 48  1  0  0  0  0
 14 15  1  0  0  0  0
 14 23  2  0  0  0  0
 15 16  2  0  0  0  0
 16 17  1  0  0  0  0
 17 18  2  0  0  0  0
 17 49  1  0  0  0  0
 18 19  1  0  0  0  0
 18 50  1  0  0  0  0
 19 20  2  0  0  0  0
 19 51  1  0  0  0  0
 20 21  1  0  0  0  0
 20 52  1  0  0  0  0
 21 22  2  0  0  0  0
 21 53  1  0  0  0  0
 22 23  1  0  0  0  0
 22 54  1  0  0  0  0
 23 24  1  0  0  0  0
 24 25  1  0  0  0  0
 24 55  1  0  0  0  0
 24 56  1  0  0  0  0
 25 26  2  3  0  0  0
 25 57  1  0  0  0  0
 26 27  1  0  0  0  0
 26 58  1  0  0  0  0
 27 28  2  3  0  0  0
 27 59  1  0  0  0  0
 28 29  1  0  0  0  0
 28 60  1  0  0  0  0
 29 30  2  3  0  0  0
 29 61  1  0  0  0  0
 30 31  1  0  0  0  0
 30 62  1  0  0  0  0
 31 63  1  0  0  0  0
M  END
$$$$
