
 OpenBabel04232216423D

 65 68  0  0  1  0  0  0  0  0999 V2000
    2.3980    2.5390    1.2917 C   0  0  0  0  0  0  0  0  0  0  0  0
    1.9560    2.0971   -0.0466 C   0  0  0  0  0  3  0  0  0  0  0  0
    2.9242    1.9562   -1.1327 C   0  0  0  0  0  0  0  0  0  0  0  0
    4.1475    1.9425   -0.6416 C   0  0  0  0  0  0  0  0  0  0  0  0
    5.5432    2.0203   -0.5744 C   0  0  3  0  0  0  0  0  0  0  0  0
    6.4488    1.0577   -1.3321 C   0  0  0  0  0  0  0  0  0  0  0  0
    7.8694    1.0025   -0.7140 C   0  0  0  0  0  0  0  0  0  0  0  0
    8.4853   -0.4056   -0.5610 C   0  0  0  0  0  0  0  0  0  0  0  0
    9.4972   -0.5345    0.6133 C   0  0  0  0  0  0  0  0  0  0  0  0
    8.8710   -0.5177    2.0241 C   0  0  0  0  0  0  0  0  0  0  0  0
    9.8606   -0.3028    3.1916 C   0  0  0  0  0  0  0  0  0  0  0  0
    9.1948   -0.5654    4.5564 C   0  0  0  0  0  0  0  0  0  0  0  0
    8.7667    0.6918    5.3936 C   0  0  0  0  0  0  0  0  0  0  0  0
    7.3304    0.4879    5.8683 C   0  0  0  0  0  0  0  0  0  0  0  0
    6.2193    1.5614    5.8253 C   0  0  0  0  0  0  0  0  0  0  0  0
    4.5923    1.5489    0.6805 C   0  0  0  0  0  0  0  0  0  0  0  0
    4.3440    0.1132    0.8805 C   0  0  0  0  0  0  0  0  0  0  0  0
    5.3808   -0.8414    0.9065 C   0  0  0  0  0  0  0  0  0  0  0  0
    5.1047   -2.1366    0.7591 C   0  0  0  0  0  0  0  0  0  0  0  0
    6.1094   -3.0876    1.1414 C   0  0  0  0  0  0  0  0  0  0  0  0
    5.7655   -3.7835    2.2382 C   0  0  0  0  0  0  0  0  0  0  0  0
    6.7241   -4.0528    3.2747 C   0  0  0  0  0  0  0  0  0  0  0  0
    6.4241   -3.5997    4.5009 C   0  0  0  0  0  0  0  0  0  0  0  0
    5.7652   -2.2933    4.9371 C   0  0  0  0  0  0  0  0  0  0  0  0
    5.0165   -1.4069    4.3337 N   0  0  0  0  0  0  0  0  0  0  0  0
    4.7198   -0.2932    5.1547 C   0  0  0  0  0  0  0  0  0  0  0  0
    5.1218    0.9906    4.8996 C   0  0  0  0  0  0  0  0  0  0  0  0
    5.0982    1.5954    3.5775 C   0  0  0  0  0  0  0  0  0  0  0  0
    4.0003    2.1994    3.0849 C   0  0  0  0  0  0  0  0  0  0  0  0
    3.7022    2.3128    1.6449 C   0  0  0  0  0  0  0  0  0  0  0  0
    1.6346    2.8271    2.0055 H   0  0  0  0  0  0  0  0  0  0  0  0
    0.9503    1.7099   -0.1648 H   0  0  0  0  0  0  0  0  0  0  0  0
    2.6485    2.0053   -2.1721 H   0  0  0  0  0  0  0  0  0  0  0  0
    5.9513    3.0118   -0.5504 H   0  0  0  0  0  0  0  0  0  0  0  0
    6.5357    1.4249   -2.3635 H   0  0  0  0  0  0  0  0  0  0  0  0
    6.0140    0.0573   -1.4280 H   0  0  0  0  0  0  0  0  0  0  0  0
    7.8662    1.5077    0.2551 H   0  0  0  0  0  0  0  0  0  0  0  0
    8.5394    1.5836   -1.3609 H   0  0  0  0  0  0  0  0  0  0  0  0
    9.0116   -0.6507   -1.4931 H   0  0  0  0  0  0  0  0  0  0  0  0
    7.7139   -1.1698   -0.4675 H   0  0  0  0  0  0  0  0  0  0  0  0
   10.2565    0.2476    0.5246 H   0  0  0  0  0  0  0  0  0  0  0  0
   10.0162   -1.4961    0.4928 H   0  0  0  0  0  0  0  0  0  0  0  0
    8.3756   -1.4838    2.1701 H   0  0  0  0  0  0  0  0  0  0  0  0
    8.1057    0.2569    2.0983 H   0  0  0  0  0  0  0  0  0  0  0  0
   10.2804    0.7061    3.1524 H   0  0  0  0  0  0  0  0  0  0  0  0
   10.6886   -1.0127    3.0834 H   0  0  0  0  0  0  0  0  0  0  0  0
    9.8528   -1.1808    5.1813 H   0  0  0  0  0  0  0  0  0  0  0  0
    8.3461   -1.2313    4.3616 H   0  0  0  0  0  0  0  0  0  0  0  0
    8.8916    1.6241    4.8394 H   0  0  0  0  0  0  0  0  0  0  0  0
    9.4075    0.7433    6.2843 H   0  0  0  0  0  0  0  0  0  0  0  0
    7.2936   -0.0560    6.8187 H   0  0  0  0  0  0  0  0  0  0  0  0
    7.0114   -0.2201    5.1248 H   0  0  0  0  0  0  0  0  0  0  0  0
    6.5936    2.5314    5.4790 H   0  0  0  0  0  0  0  0  0  0  0  0
    5.7947    1.7207    6.8266 H   0  0  0  0  0  0  0  0  0  0  0  0
    3.3709   -0.2083    1.2454 H   0  0  0  0  0  0  0  0  0  0  0  0
    6.3638   -0.4799    1.1543 H   0  0  0  0  0  0  0  0  0  0  0  0
    4.0715   -2.4596    0.6643 H   0  0  0  0  0  0  0  0  0  0  0  0
    7.1378   -2.8696    0.8989 H   0  0  0  0  0  0  0  0  0  0  0  0
    4.7354   -3.8619    2.5304 H   0  0  0  0  0  0  0  0  0  0  0  0
    7.7566   -3.8864    2.9552 H   0  0  0  0  0  0  0  0  0  0  0  0
    6.0928   -4.3688    5.1906 H   0  0  0  0  0  0  0  0  0  0  0  0
    6.0556   -2.1044    5.9910 H   0  0  0  0  0  0  0  0  0  0  0  0
    4.6777   -0.5528    6.2155 H   0  0  0  0  0  0  0  0  0  0  0  0
    5.9679    1.3954    2.9612 H   0  0  0  0  0  0  0  0  0  0  0  0
    3.1631    2.3890    3.7564 H   0  0  0  0  0  0  0  0  0  0  0  0
  1  2  1  0  0  0  0
  1 30  2  0  0  0  0
  1 31  1  0  0  0  0
  2  3  1  0  0  0  0
  2 32  1  0  0  0  0
  3  4  2  0  0  0  0
  3 33  1  0  0  0  0
  4  5  1  0  0  0  0
  4 16  1  0  0  0  0
  5  6  1  0  0  0  0
  5 16  1  0  0  0  0
  5 34  1  0  0  0  0
  6  7  1  0  0  0  0
  6 35  1  0  0  0  0
  6 36  1  0  0  0  0
  7  8  1  0  0  0  0
  7 37  1  0  0  0  0
  7 38  1  0  0  0  0
  8  9  1  0  0  0  0
  8 39  1  0  0  0  0
  8 40  1  0  0  0  0
  9 10  1  0  0  0  0
  9 41  1  0  0  0  0
  9 42  1  0  0  0  0
 10 11  1  0  0  0  0
 10 43  1  0  0  0  0
 10 44  1  0  0  0  0
 11 12  1  0  0  0  0
 11 45  1  0  0  0  0
 11 46  1  0  0  0  0
 12 13  1  0  0  0  0
 12 47  1  0  0  0  0
 12 48  1  0  0  0  0
 13 14  1  0  0  0  0
 13 49  1  0  0  0  0
 13 50  1  0  0  0  0
 14 15  1  0  0  0  0
 14 51  1  0  0  0  0
 14 52  1  0  0  0  0
 15 27  1  0  0  0  0
 15 53  1  0  0  0  0
 15 54  1  0  0  0  0
 16 17  2  0  0  0  0
 16 30  1  0  0  0  0
 17 18  1  0  0  0  0
 17 55  1  0  0  0  0
 18 19  2  3  0  0  0
 18 56  1  0  0  0  0
 19 20  1  0  0  0  0
 19 57  1  0  0  0  0
 20 21  2  3  0  0  0
 20 58  1  0  0  0  0
 21 22  1  0  0  0  0
 21 59  1  0  0  0  0
 22 23  2  3  0  0  0
 22 60  1  0  0  0  0
 23 24  1  0  0  0  0
 23 61  1  0  0  0  0
 24 25  2  3  0  0  0
 24 62  1  0  0  0  0
 25 26  1  0  0  0  0
 26 27  2  3  0  0  0
 26 63  1  0  0  0  0
 27 28  1  0  0  0  0
 28 29  2  3  0  0  0
 28 64  1  0  0  0  0
 29 30  1  0  0  0  0
 29 65  1  0  0  0  0
M  END
$$$$
