
 OpenBabel04232216433D

 27 27  0  0  0  0  0  0  0  0999 V2000
    6.1462    0.3877   -0.9281 C   0  0  0  0  0  0  0  0  0  0  0  0
    4.7682    0.5431   -0.5010 C   0  0  0  0  0  0  0  0  0  0  0  0
    4.0327    1.4760    0.1094 C   0  0  0  0  0  0  0  0  0  0  0  0
    4.6756    2.5763    0.7163 C   0  0  0  0  0  0  0  0  0  0  0  0
    4.7283    3.7747    0.1643 C   0  0  0  0  0  0  0  0  0  0  0  0
    5.9286    4.5047    0.4528 C   0  0  0  0  0  0  0  0  0  0  0  0
    6.6187    4.8413   -0.6260 C   0  0  0  0  0  0  0  0  0  0  0  0
    7.4618    5.9856   -0.7095 C   0  0  0  0  0  0  0  0  0  0  0  0
    8.5135    5.9315   -1.5327 C   0  0  0  0  0  0  0  0  0  0  0  0
    9.6196    5.1960   -1.4775 N   0  0  0  0  0  0  0  0  0  0  0  0
    9.8377    4.0083   -1.0182 C   0  0  0  0  0  0  0  0  0  0  0  0
    9.2565    2.7158   -0.4463 C   0  0  0  0  0  0  0  0  0  0  0  0
    8.4640    1.6250   -0.3074 C   0  0  0  0  0  0  0  0  0  0  0  0
    7.4356    0.7926   -0.9055 C   0  0  0  0  0  0  0  0  0  0  0  0
    6.0993   -0.5608   -1.4791 H   0  0  0  0  0  0  0  0  0  0  0  0
    4.1537   -0.3441   -0.7661 H   0  0  0  0  0  0  0  0  0  0  0  0
    2.9434    1.4021    0.1975 H   0  0  0  0  0  0  0  0  0  0  0  0
    5.4091    2.2840    1.4760 H   0  0  0  0  0  0  0  0  0  0  0  0
    4.1208    4.0906   -0.6799 H   0  0  0  0  0  0  0  0  0  0  0  0
    6.2690    4.7203    1.4726 H   0  0  0  0  0  0  0  0  0  0  0  0
    6.3856    4.4124   -1.6040 H   0  0  0  0  0  0  0  0  0  0  0  0
    6.8311    6.8770   -0.7579 H   0  0  0  0  0  0  0  0  0  0  0  0
    8.6108    6.7763   -2.2233 H   0  0  0  0  0  0  0  0  0  0  0  0
   10.9438    3.9386   -0.9141 H   0  0  0  0  0  0  0  0  0  0  0  0
   10.1289    2.4982    0.1999 H   0  0  0  0  0  0  0  0  0  0  0  0
    8.9909    0.9200    0.3614 H   0  0  0  0  0  0  0  0  0  0  0  0
    8.0276    0.0012   -1.3823 H   0  0  0  0  0  0  0  0  0  0  0  0
  1  2  1  0  0  0  0
  1 14  2  0  0  0  0
  1 15  1  0  0  0  0
  2  3  2  0  0  0  0
  2 16  1  0  0  0  0
  3  4  1  0  0  0  0
  3 17  1  0  0  0  0
  4  5  2  0  0  0  0
  4 18  1  0  0  0  0
  5  6  1  0  0  0  0
  5 19  1  0  0  0  0
  6  7  2  0  0  0  0
  6 20  1  0  0  0  0
  7  8  1  0  0  0  0
  7 21  1  0  0  0  0
  8  9  2  0  0  0  0
  8 22  1  0  0  0  0
  9 10  1  0  0  0  0
  9 23  1  0  0  0  0
 10 11  2  0  0  0  0
 11 12  1  0  0  0  0
 11 24  1  0  0  0  0
 12 13  2  0  0  0  0
 12 25  1  0  0  0  0
 13 14  1  0  0  0  0
 13 26  1  0  0  0  0
 14 27  1  0  0  0  0
M  END
$$$$
