
 OpenBabel04232217003D

235234  0  0  0  0  0  0  0  0999 V2000
    0.8601   -1.5641   -3.8654 O   0  0  0  0  0  0  0  0  0  0  0  0
    2.2761   -1.5511   -3.8193 C   0  0  0  0  0  0  0  0  0  0  0  0
    2.8081   -2.1070   -5.1276 C   0  0  0  0  0  0  0  0  0  0  0  0
    4.3308   -2.1170   -5.1378 C   0  0  0  0  0  0  0  0  0  0  0  0
    4.8576   -2.6760   -6.4524 C   0  0  0  0  0  0  0  0  0  0  0  0
    6.3787   -2.6820   -6.4537 C   0  0  0  0  0  0  0  0  0  0  0  0
    6.9049   -3.2418   -7.7658 C   0  0  0  0  0  0  0  0  0  0  0  0
    8.4242   -3.2445   -7.7639 C   0  0  0  0  0  0  0  0  0  0  0  0
    8.9457   -3.8042   -9.0763 C   0  0  0  0  0  0  0  0  0  0  0  0
   10.4643   -3.8039   -9.0733 C   0  0  0  0  0  0  0  0  0  0  0  0
   10.9837   -4.3617  -10.3859 C   0  0  0  0  0  0  0  0  0  0  0  0
   12.5011   -4.3598  -10.3842 C   0  0  0  0  0  0  0  0  0  0  0  0
   13.0205   -4.9196  -11.6950 C   0  0  0  0  0  0  0  0  0  0  0  0
   14.5373   -4.9191  -11.6905 C   0  0  0  0  0  0  0  0  0  0  0  0
   15.0562   -5.4781  -13.0015 C   0  0  0  0  0  0  0  0  0  0  0  0
   16.5732   -5.4796  -12.9969 C   0  0  0  0  0  0  0  0  0  0  0  0
   17.0917   -6.0374  -14.3086 C   0  0  0  0  0  0  0  0  0  0  0  0
   18.6084   -6.0402  -14.3031 C   0  0  0  0  0  0  0  0  0  0  0  0
   19.1268   -6.5996  -15.6141 C   0  0  0  0  0  0  0  0  0  0  0  0
   20.6434   -6.6013  -15.6091 C   0  0  0  0  0  0  0  0  0  0  0  0
   21.1618   -7.1625  -16.9193 C   0  0  0  0  0  0  0  0  0  0  0  0
   22.6784   -7.1653  -16.9137 C   0  0  0  0  0  0  0  0  0  0  0  0
   23.1968   -7.7283  -18.2232 C   0  0  0  0  0  0  0  0  0  0  0  0
   24.7135   -7.7300  -18.2182 C   0  0  0  0  0  0  0  0  0  0  0  0
   25.2319   -8.2931  -19.5276 C   0  0  0  0  0  0  0  0  0  0  0  0
   26.7487   -8.2961  -19.5221 C   0  0  0  0  0  0  0  0  0  0  0  0
   27.2673   -8.8592  -20.8315 C   0  0  0  0  0  0  0  0  0  0  0  0
   28.7843   -8.8624  -20.8259 C   0  0  0  0  0  0  0  0  0  0  0  0
   29.3031   -9.4255  -22.1354 C   0  0  0  0  0  0  0  0  0  0  0  0
   30.8203   -9.4295  -22.1313 C   0  0  0  0  0  0  0  0  0  0  0  0
   31.3367   -9.9934  -23.4414 C   0  0  0  0  0  0  0  0  0  0  0  0
   32.8539   -9.9976  -23.4431 C   0  0  0  0  0  0  0  0  0  0  0  0
   33.3670  -10.5598  -24.7561 C   0  0  0  0  0  0  0  0  0  0  0  0
   34.8854  -10.5628  -24.7597 C   0  0  0  0  0  0  0  0  0  0  0  0
   35.4108  -11.1186  -26.0682 C   0  0  0  0  0  0  0  0  0  0  0  0
   36.9257  -11.1128  -26.0491 C   0  0  0  0  0  0  0  0  0  0  0  0
   37.3957  -11.6758  -27.2677 O   0  0  0  0  0  0  0  0  0  0  0  0
   38.8243  -11.7070  -27.2869 C   0  0  0  0  0  0  0  0  0  0  0  0
   39.3354  -12.5229  -26.2370 O   0  0  0  0  0  0  0  0  0  0  0  0
   40.7547  -12.5162  -26.1912 C   0  0  0  0  0  0  0  0  0  0  0  0
   41.2765  -11.2169  -25.9311 O   0  0  0  0  0  0  0  0  0  0  0  0
   42.7005  -11.1685  -26.0301 C   0  0  0  0  0  0  0  0  0  0  0  0
   43.2133  -11.6135  -27.2833 O   0  0  0  0  0  0  0  0  0  0  0  0
   42.7290  -10.8261  -28.3651 C   0  0  0  0  0  0  0  0  0  0  0  0
   43.2344  -11.4365  -29.6575 C   0  0  0  0  0  0  0  0  0  0  0  0
   42.7405  -10.6217  -30.8407 C   0  0  0  0  0  0  0  0  0  0  0  0
   43.2649  -11.1972  -32.1438 C   0  0  0  0  0  0  0  0  0  0  0  0
   42.7771  -10.3550  -33.3122 C   0  0  0  0  0  0  0  0  0  0  0  0
   43.3078  -10.9206  -34.6179 C   0  0  0  0  0  0  0  0  0  0  0  0
   42.8217  -10.0786  -35.7835 C   0  0  0  0  0  0  0  0  0  0  0  0
   43.3530  -10.6476  -37.0864 C   0  0  0  0  0  0  0  0  0  0  0  0
   42.8691   -9.8065  -38.2524 C   0  0  0  0  0  0  0  0  0  0  0  0
   43.3991  -10.3769  -39.5543 C   0  0  0  0  0  0  0  0  0  0  0  0
   42.9135   -9.5367  -40.7200 C   0  0  0  0  0  0  0  0  0  0  0  0
   43.4436  -10.1071  -42.0216 C   0  0  0  0  0  0  0  0  0  0  0  0
   42.9554   -9.2688  -43.1873 C   0  0  0  0  0  0  0  0  0  0  0  0
   43.4850   -9.8397  -44.4888 C   0  0  0  0  0  0  0  0  0  0  0  0
   42.9972   -9.0010  -45.6547 C   0  0  0  0  0  0  0  0  0  0  0  0
   43.5270   -9.5717  -46.9564 C   0  0  0  0  0  0  0  0  0  0  0  0
   43.0385   -8.7335  -48.1217 C   0  0  0  0  0  0  0  0  0  0  0  0
   43.5680   -9.3048  -49.4241 C   0  0  0  0  0  0  0  0  0  0  0  0
   43.0813   -8.4662  -50.5904 C   0  0  0  0  0  0  0  0  0  0  0  0
   43.6120   -9.0372  -51.8907 C   0  0  0  0  0  0  0  0  0  0  0  0
   43.1243   -8.1984  -53.0572 C   0  0  0  0  0  0  0  0  0  0  0  0
   43.6540   -8.7695  -54.3585 C   0  0  0  0  0  0  0  0  0  0  0  0
   43.1668   -7.9307  -55.5245 C   0  0  0  0  0  0  0  0  0  0  0  0
   43.6965   -8.5016  -56.8260 C   0  0  0  0  0  0  0  0  0  0  0  0
   43.2095   -7.6628  -57.9920 C   0  0  0  0  0  0  0  0  0  0  0  0
   43.7392   -8.2338  -59.2936 C   0  0  0  0  0  0  0  0  0  0  0  0
   43.2534   -7.3945  -60.4598 C   0  0  0  0  0  0  0  0  0  0  0  0
   43.7834   -7.9653  -61.7621 C   0  0  0  0  0  0  0  0  0  0  0  0
   43.2982   -7.1256  -62.9285 C   0  0  0  0  0  0  0  0  0  0  0  0
   43.8274   -7.6959  -64.2317 C   0  0  0  0  0  0  0  0  0  0  0  0
   43.3423   -6.8560  -65.4001 C   0  0  0  0  0  0  0  0  0  0  0  0
   43.8711   -7.4244  -66.7041 C   0  0  0  0  0  0  0  0  0  0  0  0
   43.3846   -6.5854  -67.8754 C   0  0  0  0  0  0  0  0  0  0  0  0
   43.9117   -7.1536  -69.1823 C   0  0  0  0  0  0  0  0  0  0  0  0
   43.4265   -6.3169  -70.3585 C   0  0  0  0  0  0  0  0  0  0  0  0
   43.9541   -6.8870  -71.6678 C   0  0  0  0  0  0  0  0  0  0  0  0
   43.4768   -6.0570  -72.8528 C   0  0  0  0  0  0  0  0  0  0  0  0
   44.0039   -6.6273  -74.1569 C   0  0  0  0  0  0  0  0  0  0  0  0
    0.5454   -1.2026   -3.0151 H   0  0  0  0  0  0  0  0  0  0  0  0
    2.6077   -2.1624   -2.9727 H   0  0  0  0  0  0  0  0  0  0  0  0
    2.6152   -0.5205   -3.6673 H   0  0  0  0  0  0  0  0  0  0  0  0
    2.4260   -1.5089   -5.9640 H   0  0  0  0  0  0  0  0  0  0  0  0
    2.4199   -3.1214   -5.2812 H   0  0  0  0  0  0  0  0  0  0  0  0
    4.7039   -2.7237   -4.3043 H   0  0  0  0  0  0  0  0  0  0  0  0
    4.7099   -1.0987   -4.9928 H   0  0  0  0  0  0  0  0  0  0  0  0
    4.4895   -2.0706   -7.2902 H   0  0  0  0  0  0  0  0  0  0  0  0
    4.4835   -3.6968   -6.6011 H   0  0  0  0  0  0  0  0  0  0  0  0
    6.7509   -3.2871   -5.6175 H   0  0  0  0  0  0  0  0  0  0  0  0
    6.7566   -1.6622   -6.3082 H   0  0  0  0  0  0  0  0  0  0  0  0
    6.5354   -2.6381   -8.6039 H   0  0  0  0  0  0  0  0  0  0  0  0
    6.5316   -4.2629   -7.9123 H   0  0  0  0  0  0  0  0  0  0  0  0
    8.7960   -3.8488   -6.9273 H   0  0  0  0  0  0  0  0  0  0  0  0
    8.7995   -2.2240   -7.6189 H   0  0  0  0  0  0  0  0  0  0  0  0
    8.5750   -3.2008   -9.9134 H   0  0  0  0  0  0  0  0  0  0  0  0
    8.5737   -4.8254   -9.2211 H   0  0  0  0  0  0  0  0  0  0  0  0
   10.8369   -4.4085   -8.2372 H   0  0  0  0  0  0  0  0  0  0  0  0
   10.8381   -2.7832   -8.9276 H   0  0  0  0  0  0  0  0  0  0  0  0
   10.6107   -3.7584  -11.2223 H   0  0  0  0  0  0  0  0  0  0  0  0
   10.6119   -5.3834  -10.5311 H   0  0  0  0  0  0  0  0  0  0  0  0
   12.8745   -4.9618   -9.5464 H   0  0  0  0  0  0  0  0  0  0  0  0
   12.8733   -3.3380  -10.2400 H   0  0  0  0  0  0  0  0  0  0  0  0
   12.6489   -4.3166  -12.5324 H   0  0  0  0  0  0  0  0  0  0  0  0
   12.6469   -5.9405  -11.8399 H   0  0  0  0  0  0  0  0  0  0  0  0
   14.9095   -5.5225  -10.8534 H   0  0  0  0  0  0  0  0  0  0  0  0
   14.9109   -3.8981  -11.5458 H   0  0  0  0  0  0  0  0  0  0  0  0
   14.6856   -4.8739  -13.8389 H   0  0  0  0  0  0  0  0  0  0  0  0
   14.6821   -6.4991  -13.1472 H   0  0  0  0  0  0  0  0  0  0  0  0
   16.9441   -6.0847  -12.1605 H   0  0  0  0  0  0  0  0  0  0  0  0
   16.9480   -4.4590  -12.8504 H   0  0  0  0  0  0  0  0  0  0  0  0
   16.7218   -5.4316  -15.1450 H   0  0  0  0  0  0  0  0  0  0  0  0
   16.7163   -7.0576  -14.4557 H   0  0  0  0  0  0  0  0  0  0  0  0
   18.9784   -6.6452  -13.4661 H   0  0  0  0  0  0  0  0  0  0  0  0
   18.9839   -5.0199  -14.1571 H   0  0  0  0  0  0  0  0  0  0  0  0
   18.7561   -5.9954  -16.4514 H   0  0  0  0  0  0  0  0  0  0  0  0
   18.7520   -7.6203  -15.7595 H   0  0  0  0  0  0  0  0  0  0  0  0
   21.0141   -7.2044  -14.7711 H   0  0  0  0  0  0  0  0  0  0  0  0
   21.0182   -5.5804  -15.4650 H   0  0  0  0  0  0  0  0  0  0  0  0
   20.7918   -6.5589  -17.7573 H   0  0  0  0  0  0  0  0  0  0  0  0
   20.7863   -8.1831  -17.0637 H   0  0  0  0  0  0  0  0  0  0  0  0
   23.0484   -7.7680  -16.0750 H   0  0  0  0  0  0  0  0  0  0  0  0
   23.0539   -6.1446  -16.7705 H   0  0  0  0  0  0  0  0  0  0  0  0
   22.8261   -7.1263  -19.0621 H   0  0  0  0  0  0  0  0  0  0  0  0
   22.8220   -8.7494  -18.3658 H   0  0  0  0  0  0  0  0  0  0  0  0
   25.0840   -8.3319  -17.3792 H   0  0  0  0  0  0  0  0  0  0  0  0
   25.0882   -6.7089  -18.0756 H   0  0  0  0  0  0  0  0  0  0  0  0
   24.8619   -7.6905  -20.3664 H   0  0  0  0  0  0  0  0  0  0  0  0
   24.8562   -9.3138  -19.6707 H   0  0  0  0  0  0  0  0  0  0  0  0
   27.1183   -8.8986  -18.6832 H   0  0  0  0  0  0  0  0  0  0  0  0
   27.1241   -7.2753  -19.3789 H   0  0  0  0  0  0  0  0  0  0  0  0
   26.8975   -8.2566  -21.6703 H   0  0  0  0  0  0  0  0  0  0  0  0
   26.8915   -9.8798  -20.9746 H   0  0  0  0  0  0  0  0  0  0  0  0
   29.1538   -9.4650  -19.9870 H   0  0  0  0  0  0  0  0  0  0  0  0
   29.1598   -7.8417  -20.6827 H   0  0  0  0  0  0  0  0  0  0  0  0
   28.9330   -8.8228  -22.9740 H   0  0  0  0  0  0  0  0  0  0  0  0
   28.9270  -10.4460  -22.2784 H   0  0  0  0  0  0  0  0  0  0  0  0
   31.1905  -10.0320  -21.2927 H   0  0  0  0  0  0  0  0  0  0  0  0
   31.1963   -8.4088  -21.9886 H   0  0  0  0  0  0  0  0  0  0  0  0
   30.9643   -9.3916  -24.2798 H   0  0  0  0  0  0  0  0  0  0  0  0
   30.9611  -11.0143  -23.5825 H   0  0  0  0  0  0  0  0  0  0  0  0
   33.2263  -10.6007  -22.6054 H   0  0  0  0  0  0  0  0  0  0  0  0
   33.2303   -8.9769  -23.2991 H   0  0  0  0  0  0  0  0  0  0  0  0
   32.9936   -9.9564  -25.5928 H   0  0  0  0  0  0  0  0  0  0  0  0
   32.9913  -11.5806  -24.8976 H   0  0  0  0  0  0  0  0  0  0  0  0
   35.2530  -11.1676  -23.9201 H   0  0  0  0  0  0  0  0  0  0  0  0
   35.2581   -9.5424  -24.6076 H   0  0  0  0  0  0  0  0  0  0  0  0
   35.0471  -10.5277  -26.9183 H   0  0  0  0  0  0  0  0  0  0  0  0
   35.0467  -12.1409  -26.2284 H   0  0  0  0  0  0  0  0  0  0  0  0
   37.2767  -11.7100  -25.2000 H   0  0  0  0  0  0  0  0  0  0  0  0
   37.3010  -10.0878  -25.9403 H   0  0  0  0  0  0  0  0  0  0  0  0
   39.1945  -10.6772  -27.2068 H   0  0  0  0  0  0  0  0  0  0  0  0
   39.1298  -12.1136  -28.2546 H   0  0  0  0  0  0  0  0  0  0  0  0
   41.1339  -12.9269  -27.1336 H   0  0  0  0  0  0  0  0  0  0  0  0
   41.0628  -13.1851  -25.3764 H   0  0  0  0  0  0  0  0  0  0  0  0
   43.1328  -11.7867  -25.2404 H   0  0  0  0  0  0  0  0  0  0  0  0
   43.0180  -10.1347  -25.8576 H   0  0  0  0  0  0  0  0  0  0  0  0
   43.0863   -9.7958  -28.2565 H   0  0  0  0  0  0  0  0  0  0  0  0
   41.6327  -10.8190  -28.3756 H   0  0  0  0  0  0  0  0  0  0  0  0
   42.8905  -12.4762  -29.7385 H   0  0  0  0  0  0  0  0  0  0  0  0
   44.3294  -11.4788  -29.6435 H   0  0  0  0  0  0  0  0  0  0  0  0
   43.0710   -9.5808  -30.7364 H   0  0  0  0  0  0  0  0  0  0  0  0
   41.6435  -10.6118  -30.8553 H   0  0  0  0  0  0  0  0  0  0  0  0
   42.9232  -12.2320  -32.2621 H   0  0  0  0  0  0  0  0  0  0  0  0
   44.3613  -11.2144  -32.1308 H   0  0  0  0  0  0  0  0  0  0  0  0
   43.1147   -9.3177  -33.1920 H   0  0  0  0  0  0  0  0  0  0  0  0
   41.6812  -10.3390  -33.3300 H   0  0  0  0  0  0  0  0  0  0  0  0
   42.9708  -11.9569  -34.7391 H   0  0  0  0  0  0  0  0  0  0  0  0
   44.4038  -10.9347  -34.5997 H   0  0  0  0  0  0  0  0  0  0  0  0
   43.1590   -9.0421  -35.6626 H   0  0  0  0  0  0  0  0  0  0  0  0
   41.7248  -10.0630  -35.8023 H   0  0  0  0  0  0  0  0  0  0  0  0
   43.0145  -11.6839  -37.2072 H   0  0  0  0  0  0  0  0  0  0  0  0
   44.4495  -10.6643  -37.0673 H   0  0  0  0  0  0  0  0  0  0  0  0
   43.2090   -8.7703  -38.1328 H   0  0  0  0  0  0  0  0  0  0  0  0
   41.7726   -9.7885  -38.2713 H   0  0  0  0  0  0  0  0  0  0  0  0
   43.0605  -11.4134  -39.6742 H   0  0  0  0  0  0  0  0  0  0  0  0
   44.4958  -10.3937  -39.5368 H   0  0  0  0  0  0  0  0  0  0  0  0
   43.2516   -8.4999  -40.6009 H   0  0  0  0  0  0  0  0  0  0  0  0
   41.8167   -9.5203  -40.7382 H   0  0  0  0  0  0  0  0  0  0  0  0
   43.1072  -11.1445  -42.1401 H   0  0  0  0  0  0  0  0  0  0  0  0
   44.5404  -10.1214  -42.0045 H   0  0  0  0  0  0  0  0  0  0  0  0
   43.2922   -8.2315  -43.0693 H   0  0  0  0  0  0  0  0  0  0  0  0
   41.8586   -9.2541  -43.2042 H   0  0  0  0  0  0  0  0  0  0  0  0
   43.1479  -10.8769  -44.6070 H   0  0  0  0  0  0  0  0  0  0  0  0
   44.5817   -9.8547  -44.4719 H   0  0  0  0  0  0  0  0  0  0  0  0
   43.3340   -7.9639  -45.5361 H   0  0  0  0  0  0  0  0  0  0  0  0
   41.9003   -8.9863  -45.6716 H   0  0  0  0  0  0  0  0  0  0  0  0
   43.1903  -10.6091  -47.0741 H   0  0  0  0  0  0  0  0  0  0  0  0
   44.6242   -9.5867  -46.9387 H   0  0  0  0  0  0  0  0  0  0  0  0
   43.3766   -7.6965  -48.0046 H   0  0  0  0  0  0  0  0  0  0  0  0
   41.9427   -8.7185  -48.1392 H   0  0  0  0  0  0  0  0  0  0  0  0
   43.2306  -10.3420  -49.5419 H   0  0  0  0  0  0  0  0  0  0  0  0
   44.6650   -9.3206  -49.4064 H   0  0  0  0  0  0  0  0  0  0  0  0
   43.4188   -7.4291  -50.4716 H   0  0  0  0  0  0  0  0  0  0  0  0
   41.9846   -8.4506  -50.6093 H   0  0  0  0  0  0  0  0  0  0  0  0
   43.2744  -10.0742  -52.0096 H   0  0  0  0  0  0  0  0  0  0  0  0
   44.7086   -9.0524  -51.8738 H   0  0  0  0  0  0  0  0  0  0  0  0
   43.4616   -7.1612  -52.9387 H   0  0  0  0  0  0  0  0  0  0  0  0
   42.0275   -8.1832  -53.0744 H   0  0  0  0  0  0  0  0  0  0  0  0
   43.3163   -9.8064  -54.4766 H   0  0  0  0  0  0  0  0  0  0  0  0
   44.7507   -8.7849  -54.3413 H   0  0  0  0  0  0  0  0  0  0  0  0
   43.5043   -6.8936  -55.4062 H   0  0  0  0  0  0  0  0  0  0  0  0
   42.0701   -7.9151  -55.5418 H   0  0  0  0  0  0  0  0  0  0  0  0
   43.3589   -9.5387  -56.9444 H   0  0  0  0  0  0  0  0  0  0  0  0
   44.7933   -8.5172  -56.8086 H   0  0  0  0  0  0  0  0  0  0  0  0
   43.5470   -6.6257  -57.8735 H   0  0  0  0  0  0  0  0  0  0  0  0
   42.1127   -7.6471  -58.0093 H   0  0  0  0  0  0  0  0  0  0  0  0
   43.4010   -9.2706  -59.4121 H   0  0  0  0  0  0  0  0  0  0  0  0
   44.8360   -8.2503  -59.2756 H   0  0  0  0  0  0  0  0  0  0  0  0
   43.5917   -6.3577  -60.3408 H   0  0  0  0  0  0  0  0  0  0  0  0
   42.1567   -7.3781  -60.4775 H   0  0  0  0  0  0  0  0  0  0  0  0
   43.4448   -9.0020  -61.8804 H   0  0  0  0  0  0  0  0  0  0  0  0
   44.8801   -7.9821  -61.7433 H   0  0  0  0  0  0  0  0  0  0  0  0
   43.6370   -6.0891  -62.8089 H   0  0  0  0  0  0  0  0  0  0  0  0
   42.2015   -7.1085  -62.9458 H   0  0  0  0  0  0  0  0  0  0  0  0
   43.4885   -8.7324  -64.3500 H   0  0  0  0  0  0  0  0  0  0  0  0
   44.9241   -7.7132  -64.2132 H   0  0  0  0  0  0  0  0  0  0  0  0
   43.6806   -5.8194  -65.2787 H   0  0  0  0  0  0  0  0  0  0  0  0
   42.2455   -6.8393  -65.4158 H   0  0  0  0  0  0  0  0  0  0  0  0
   43.5337   -8.4617  -66.8222 H   0  0  0  0  0  0  0  0  0  0  0  0
   44.9678   -7.4403  -66.6861 H   0  0  0  0  0  0  0  0  0  0  0  0
   43.7226   -5.5490  -67.7541 H   0  0  0  0  0  0  0  0  0  0  0  0
   42.2879   -6.5697  -67.8892 H   0  0  0  0  0  0  0  0  0  0  0  0
   43.5743   -8.1910  -69.2983 H   0  0  0  0  0  0  0  0  0  0  0  0
   45.0084   -7.1701  -69.1637 H   0  0  0  0  0  0  0  0  0  0  0  0
   43.7647   -5.2805  -70.2384 H   0  0  0  0  0  0  0  0  0  0  0  0
   42.3298   -6.3009  -70.3724 H   0  0  0  0  0  0  0  0  0  0  0  0
   43.6156   -7.9244  -71.7800 H   0  0  0  0  0  0  0  0  0  0  0  0
   45.0506   -6.9060  -71.6451 H   0  0  0  0  0  0  0  0  0  0  0  0
   43.8165   -5.0205  -72.7438 H   0  0  0  0  0  0  0  0  0  0  0  0
   42.3803   -6.0389  -72.8786 H   0  0  0  0  0  0  0  0  0  0  0  0
   45.0983   -6.6317  -74.1650 H   0  0  0  0  0  0  0  0  0  0  0  0
   43.6570   -6.0259  -75.0021 H   0  0  0  0  0  0  0  0  0  0  0  0
   43.6556   -7.6550  -74.3009 H   0  0  0  0  0  0  0  0  0  0  0  0
  1  2  1  0  0  0  0
  1 82  1  0  0  0  0
  2  3  1  0  0  0  0
  2 83  1  0  0  0  0
  2 84  1  0  0  0  0
  3  4  1  0  0  0  0
  3 85  1  0  0  0  0
  3 86  1  0  0  0  0
  4  5  1  0  0  0  0
  4 87  1  0  0  0  0
  4 88  1  0  0  0  0
  5  6  1  0  0  0  0
  5 89  1  0  0  0  0
  5 90  1  0  0  0  0
  6  7  1  0  0  0  0
  6 91  1  0  0  0  0
  6 92  1  0  0  0  0
  7  8  1  0  0  0  0
  7 93  1  0  0  0  0
  7 94  1  0  0  0  0
  8  9  1  0  0  0  0
  8 95  1  0  0  0  0
  8 96  1  0  0  0  0
  9 10  1  0  0  0  0
  9 97  1  0  0  0  0
  9 98  1  0  0  0  0
 10 11  1  0  0  0  0
 10 99  1  0  0  0  0
 10100  1  0  0  0  0
 11 12  1  0  0  0  0
 11101  1  0  0  0  0
 11102  1  0  0  0  0
 12 13  1  0  0  0  0
 12103  1  0  0  0  0
 12104  1  0  0  0  0
 13 14  1  0  0  0  0
 13105  1  0  0  0  0
 13106  1  0  0  0  0
 14 15  1  0  0  0  0
 14107  1  0  0  0  0
 14108  1  0  0  0  0
 15 16  1  0  0  0  0
 15109  1  0  0  0  0
 15110  1  0  0  0  0
 16 17  1  0  0  0  0
 16111  1  0  0  0  0
 16112  1  0  0  0  0
 17 18  1  0  0  0  0
 17113  1  0  0  0  0
 17114  1  0  0  0  0
 18 19  1  0  0  0  0
 18115  1  0  0  0  0
 18116  1  0  0  0  0
 19 20  1  0  0  0  0
 19117  1  0  0  0  0
 19118  1  0  0  0  0
 20 21  1  0  0  0  0
 20119  1  0  0  0  0
 20120  1  0  0  0  0
 21 22  1  0  0  0  0
 21121  1  0  0  0  0
 21122  1  0  0  0  0
 22 23  1  0  0  0  0
 22123  1  0  0  0  0
 22124  1  0  0  0  0
 23 24  1  0  0  0  0
 23125  1  0  0  0  0
 23126  1  0  0  0  0
 24 25  1  0  0  0  0
 24127  1  0  0  0  0
 24128  1  0  0  0  0
 25 26  1  0  0  0  0
 25129  1  0  0  0  0
 25130  1  0  0  0  0
 26 27  1  0  0  0  0
 26131  1  0  0  0  0
 26132  1  0  0  0  0
 27 28  1  0  0  0  0
 27133  1  0  0  0  0
 27134  1  0  0  0  0
 28 29  1  0  0  0  0
 28135  1  0  0  0  0
 28136  1  0  0  0  0
 29 30  1  0  0  0  0
 29137  1  0  0  0  0
 29138  1  0  0  0  0
 30 31  1  0  0  0  0
 30139  1  0  0  0  0
 30140  1  0  0  0  0
 31 32  1  0  0  0  0
 31141  1  0  0  0  0
 31142  1  0  0  0  0
 32 33  1  0  0  0  0
 32143  1  0  0  0  0
 32144  1  0  0  0  0
 33 34  1  0  0  0  0
 33145  1  0  0  0  0
 33146  1  0  0  0  0
 34 35  1  0  0  0  0
 34147  1  0  0  0  0
 34148  1  0  0  0  0
 35 36  1  0  0  0  0
 35149  1  0  0  0  0
 35150  1  0  0  0  0
 36 37  1  0  0  0  0
 36151  1  0  0  0  0
 36152  1  0  0  0  0
 37 38  1  0  0  0  0
 38 39  1  0  0  0  0
 38153  1  0  0  0  0
 38154  1  0  0  0  0
 39 40  1  0  0  0  0
 40 41  1  0  0  0  0
 40155  1  0  0  0  0
 40156  1  0  0  0  0
 41 42  1  0  0  0  0
 42 43  1  0  0  0  0
 42157  1  0  0  0  0
 42158  1  0  0  0  0
 43 44  1  0  0  0  0
 44 45  1  0  0  0  0
 44159  1  0  0  0  0
 44160  1  0  0  0  0
 45 46  1  0  0  0  0
 45161  1  0  0  0  0
 45162  1  0  0  0  0
 46 47  1  0  0  0  0
 46163  1  0  0  0  0
 46164  1  0  0  0  0
 47 48  1  0  0  0  0
 47165  1  0  0  0  0
 47166  1  0  0  0  0
 48 49  1  0  0  0  0
 48167  1  0  0  0  0
 48168  1  0  0  0  0
 49 50  1  0  0  0  0
 49169  1  0  0  0  0
 49170  1  0  0  0  0
 50 51  1  0  0  0  0
 50171  1  0  0  0  0
 50172  1  0  0  0  0
 51 52  1  0  0  0  0
 51173  1  0  0  0  0
 51174  1  0  0  0  0
 52 53  1  0  0  0  0
 52175  1  0  0  0  0
 52176  1  0  0  0  0
 53 54  1  0  0  0  0
 53177  1  0  0  0  0
 53178  1  0  0  0  0
 54 55  1  0  0  0  0
 54179  1  0  0  0  0
 54180  1  0  0  0  0
 55 56  1  0  0  0  0
 55181  1  0  0  0  0
 55182  1  0  0  0  0
 56 57  1  0  0  0  0
 56183  1  0  0  0  0
 56184  1  0  0  0  0
 57 58  1  0  0  0  0
 57185  1  0  0  0  0
 57186  1  0  0  0  0
 58 59  1  0  0  0  0
 58187  1  0  0  0  0
 58188  1  0  0  0  0
 59 60  1  0  0  0  0
 59189  1  0  0  0  0
 59190  1  0  0  0  0
 60 61  1  0  0  0  0
 60191  1  0  0  0  0
 60192  1  0  0  0  0
 61 62  1  0  0  0  0
 61193  1  0  0  0  0
 61194  1  0  0  0  0
 62 63  1  0  0  0  0
 62195  1  0  0  0  0
 62196  1  0  0  0  0
 63 64  1  0  0  0  0
 63197  1  0  0  0  0
 63198  1  0  0  0  0
 64 65  1  0  0  0  0
 64199  1  0  0  0  0
 64200  1  0  0  0  0
 65 66  1  0  0  0  0
 65201  1  0  0  0  0
 65202  1  0  0  0  0
 66 67  1  0  0  0  0
 66203  1  0  0  0  0
 66204  1  0  0  0  0
 67 68  1  0  0  0  0
 67205  1  0  0  0  0
 67206  1  0  0  0  0
 68 69  1  0  0  0  0
 68207  1  0  0  0  0
 68208  1  0  0  0  0
 69 70  1  0  0  0  0
 69209  1  0  0  0  0
 69210  1  0  0  0  0
 70 71  1  0  0  0  0
 70211  1  0  0  0  0
 70212  1  0  0  0  0
 71 72  1  0  0  0  0
 71213  1  0  0  0  0
 71214  1  0  0  0  0
 72 73  1  0  0  0  0
 72215  1  0  0  0  0
 72216  1  0  0  0  0
 73 74  1  0  0  0  0
 73217  1  0  0  0  0
 73218  1  0  0  0  0
 74 75  1  0  0  0  0
 74219  1  0  0  0  0
 74220  1  0  0  0  0
 75 76  1  0  0  0  0
 75221  1  0  0  0  0
 75222  1  0  0  0  0
 76 77  1  0  0  0  0
 76223  1  0  0  0  0
 76224  1  0  0  0  0
 77 78  1  0  0  0  0
 77225  1  0  0  0  0
 77226  1  0  0  0  0
 78 79  1  0  0  0  0
 78227  1  0  0  0  0
 78228  1  0  0  0  0
 79 80  1  0  0  0  0
 79229  1  0  0  0  0
 79230  1  0  0  0  0
 80 81  1  0  0  0  0
 80231  1  0  0  0  0
 80232  1  0  0  0  0
 81233  1  0  0  0  0
 81234  1  0  0  0  0
 81235  1  0  0  0  0
M  END
$$$$
