
 OpenBabel04232217003D

225224  0  0  1  0  0  0  0  0999 V2000
    0.9687    0.3839   -0.1230 O   0  0  0  0  0  0  0  0  0  0  0  0
    2.3870    0.2687   -0.0777 C   0  0  0  0  0  0  0  0  0  0  0  0
    2.8764    0.5096    1.3542 C   0  0  3  0  0  0  0  0  0  0  0  0
    2.2744   -0.5238    2.3135 C   0  0  0  0  0  0  0  0  0  0  0  0
    4.4112    0.4952    1.3773 C   0  0  0  0  0  0  0  0  0  0  0  0
    4.9765    0.7369    2.7723 C   0  0  0  0  0  0  0  0  0  0  0  0
    6.4961    0.7239    2.7647 C   0  0  0  0  0  0  0  0  0  0  0  0
    7.0082    0.9627    4.1777 C   0  0  0  0  0  0  0  0  0  0  0  0
    8.5249    0.9520    4.1974 C   0  0  0  0  0  0  0  0  0  0  0  0
    9.0266    1.1933    5.6105 C   0  0  0  0  0  0  0  0  0  0  0  0
   10.5434    1.1840    5.6256 C   0  0  0  0  0  0  0  0  0  0  0  0
   11.0506    1.4228    7.0351 C   0  0  0  0  0  0  0  0  0  0  0  0
   12.5674    1.4110    7.0430 C   0  0  0  0  0  0  0  0  0  0  0  0
   13.0781    1.6516    8.4506 C   0  0  0  0  0  0  0  0  0  0  0  0
   14.5948    1.6411    8.4561 C   0  0  0  0  0  0  0  0  0  0  0  0
   15.1055    1.8819    9.8636 C   0  0  0  0  0  0  0  0  0  0  0  0
   16.6221    1.8734    9.8693 C   0  0  0  0  0  0  0  0  0  0  0  0
   17.1323    2.1162   11.2767 C   0  0  0  0  0  0  0  0  0  0  0  0
   18.6488    2.1099   11.2825 C   0  0  0  0  0  0  0  0  0  0  0  0
   19.1588    2.3547   12.6896 C   0  0  0  0  0  0  0  0  0  0  0  0
   20.6754    2.3504   12.6954 C   0  0  0  0  0  0  0  0  0  0  0  0
   21.1851    2.5972   14.1024 C   0  0  0  0  0  0  0  0  0  0  0  0
   22.7017    2.5950   14.1082 C   0  0  0  0  0  0  0  0  0  0  0  0
   23.2113    2.8438   15.5149 C   0  0  0  0  0  0  0  0  0  0  0  0
   24.7279    2.8435   15.5199 C   0  0  0  0  0  0  0  0  0  0  0  0
   25.2381    3.0923   16.9264 C   0  0  0  0  0  0  0  0  0  0  0  0
   26.7547    3.0939   16.9306 C   0  0  0  0  0  0  0  0  0  0  0  0
   27.2651    3.3426   18.3369 C   0  0  0  0  0  0  0  0  0  0  0  0
   28.7817    3.3442   18.3412 C   0  0  0  0  0  0  0  0  0  0  0  0
   29.2920    3.5930   19.7476 C   0  0  0  0  0  0  0  0  0  0  0  0
   30.8087    3.5946   19.7520 C   0  0  0  0  0  0  0  0  0  0  0  0
   31.3188    3.8453   21.1582 C   0  0  0  0  0  0  0  0  0  0  0  0
   32.8356    3.8470   21.1627 C   0  0  0  0  0  0  0  0  0  0  0  0
   33.3457    4.0979   22.5689 C   0  0  0  0  0  0  0  0  0  0  0  0
   34.8625    4.0995   22.5738 C   0  0  0  0  0  0  0  0  0  0  0  0
   35.3723    4.3503   23.9801 C   0  0  0  0  0  0  0  0  0  0  0  0
   36.8891    4.3502   23.9860 C   0  0  0  0  0  0  0  0  0  0  0  0
   37.3985    4.5991   25.3929 C   0  0  0  0  0  0  0  0  0  0  0  0
   38.9153    4.6008   25.3986 C   0  0  0  0  0  0  0  0  0  0  0  0
   39.4253    4.8477   26.8057 C   0  0  0  0  0  0  0  0  0  0  0  0
   40.9422    4.8469   26.8111 C   0  0  0  0  0  0  0  0  0  0  0  0
   41.4531    5.0942   28.2178 C   0  0  0  0  0  0  0  0  0  0  0  0
   42.9700    5.0938   28.2222 C   0  0  0  0  0  0  0  0  0  0  0  0
   43.4810    5.3403   29.6290 C   0  0  0  0  0  0  0  0  0  0  0  0
   44.9980    5.3401   29.6338 C   0  0  0  0  0  0  0  0  0  0  0  0
   45.5091    5.5868   31.0408 C   0  0  0  0  0  0  0  0  0  0  0  0
   47.0263    5.5868   31.0468 C   0  0  0  0  0  0  0  0  0  0  0  0
   47.5367    5.8314   32.4534 C   0  0  0  0  0  0  0  0  0  0  0  0
   49.0541    5.8344   32.4632 C   0  0  0  0  0  0  0  0  0  0  0  0
   49.5625    6.0817   33.8723 C   0  0  0  0  0  0  0  0  0  0  0  0
   51.0790    6.0877   33.8857 C   0  0  0  0  0  0  0  0  0  0  0  0
   51.5916    6.3345   35.2954 C   0  0  0  0  0  0  0  0  0  0  0  0
   53.1081    6.3355   35.2949 C   0  0  0  0  0  0  0  0  0  0  0  0
   53.6495    6.5829   36.6909 C   0  0  0  0  0  0  0  0  0  0  0  0
   55.1651    6.5828   36.6472 C   0  0  0  0  0  0  0  0  0  0  0  0
   55.6538    6.8284   37.9555 O   0  0  0  0  0  0  0  0  0  0  0  0
   57.0751    6.8168   37.9698 C   0  0  0  0  0  0  0  0  0  0  0  0
   57.5421    7.0559   39.3926 C   0  0  0  0  0  0  0  0  0  0  0  0
   57.0307    5.9562   40.3292 C   0  0  0  0  0  0  0  0  0  0  0  0
   57.4937    6.1944   41.7542 C   0  0  0  0  0  0  0  0  0  0  0  0
   56.9731    7.4462   42.1855 O   0  0  0  0  0  0  0  0  0  0  0  0
   57.3865    7.7476   43.5112 C   0  0  0  0  0  0  0  0  0  0  0  0
   56.8151    9.0970   43.8995 C   0  0  0  0  0  0  0  0  0  0  0  0
   57.2065    9.3790   45.2354 O   0  0  0  0  0  0  0  0  0  0  0  0
   56.7137   10.6423   45.6599 C   0  0  0  0  0  0  0  0  0  0  0  0
   57.1855   10.8861   47.0837 C   0  0  0  0  0  0  0  0  0  0  0  0
   58.7103   10.8954   47.1656 C   0  0  0  0  0  0  0  0  0  0  0  0
   59.1734   11.1384   48.5903 C   0  0  0  0  0  0  0  0  0  0  0  0
   60.5963   11.1415   48.5992 O   0  0  0  0  0  0  0  0  0  0  0  0
   61.0999   11.3646   49.9078 C   0  0  0  0  0  0  0  0  0  0  0  0
   62.6117   11.3559   49.8396 C   0  0  0  0  0  0  0  0  0  0  0  0
   63.1179   11.5928   51.1440 O   0  0  0  0  0  0  0  0  0  0  0  0
   64.5418   11.5818   51.1614 C   0  0  0  0  0  0  0  0  0  0  0  0
   65.0120   11.8226   52.5873 C   0  0  0  0  0  0  0  0  0  0  0  0
   64.5064   10.7308   53.5364 C   0  0  0  0  0  0  0  0  0  0  0  0
   64.9768   10.9693   54.9634 C   0  0  0  0  0  0  0  0  0  0  0  0
   64.4689   12.2218   55.4183 O   0  0  0  0  0  0  0  0  0  0  0  0
   64.8925   12.5039   56.7468 C   0  0  0  0  0  0  0  0  0  0  0  0
   64.3351   13.8506   57.1579 C   0  0  0  0  0  0  0  0  0  0  0  0
    0.6965    0.1682   -1.0264 H   0  0  0  0  0  0  0  0  0  0  0  0
    2.8073    1.0149   -0.7596 H   0  0  0  0  0  0  0  0  0  0  0  0
    2.6707   -0.7261   -0.4263 H   0  0  0  0  0  0  0  0  0  0  0  0
    2.5222    1.4971    1.6780 H   0  0  0  0  0  0  0  0  0  0  0  0
    2.6406   -1.5309    2.0856 H   0  0  0  0  0  0  0  0  0  0  0  0
    1.1816   -0.5350    2.2516 H   0  0  0  0  0  0  0  0  0  0  0  0
    2.5219   -0.2974    3.3544 H   0  0  0  0  0  0  0  0  0  0  0  0
    4.7911    1.2727    0.7007 H   0  0  0  0  0  0  0  0  0  0  0  0
    4.7829   -0.4637    0.9936 H   0  0  0  0  0  0  0  0  0  0  0  0
    4.6372   -0.0423    3.4626 H   0  0  0  0  0  0  0  0  0  0  0  0
    4.6126    1.6972    3.1574 H   0  0  0  0  0  0  0  0  0  0  0  0
    6.8800    1.4960    2.0887 H   0  0  0  0  0  0  0  0  0  0  0  0
    6.8593   -0.2443    2.3979 H   0  0  0  0  0  0  0  0  0  0  0  0
    6.6236    0.1864    4.8510 H   0  0  0  0  0  0  0  0  0  0  0  0
    6.6378    1.9252    4.5506 H   0  0  0  0  0  0  0  0  0  0  0  0
    8.9125    1.7284    3.5270 H   0  0  0  0  0  0  0  0  0  0  0  0
    8.8970   -0.0118    3.8299 H   0  0  0  0  0  0  0  0  0  0  0  0
    8.6413    0.4170    6.2835 H   0  0  0  0  0  0  0  0  0  0  0  0
    8.6550    2.1570    5.9813 H   0  0  0  0  0  0  0  0  0  0  0  0
   10.9282    1.9614    4.9539 H   0  0  0  0  0  0  0  0  0  0  0  0
   10.9148    0.2211    5.2536 H   0  0  0  0  0  0  0  0  0  0  0  0
   10.6670    0.6462    7.7082 H   0  0  0  0  0  0  0  0  0  0  0  0
   10.6819    2.3865    7.4077 H   0  0  0  0  0  0  0  0  0  0  0  0
   12.9511    2.1865    6.3686 H   0  0  0  0  0  0  0  0  0  0  0  0
   12.9359    0.4468    6.6715 H   0  0  0  0  0  0  0  0  0  0  0  0
   12.6961    0.8754    9.1251 H   0  0  0  0  0  0  0  0  0  0  0  0
   12.7095    2.6155    8.8227 H   0  0  0  0  0  0  0  0  0  0  0  0
   14.9768    2.4173    7.7815 H   0  0  0  0  0  0  0  0  0  0  0  0
   14.9638    0.6774    8.0839 H   0  0  0  0  0  0  0  0  0  0  0  0
   14.7245    1.1050   10.5378 H   0  0  0  0  0  0  0  0  0  0  0  0
   14.7354    2.8451   10.2361 H   0  0  0  0  0  0  0  0  0  0  0  0
   17.0031    2.6496    9.1941 H   0  0  0  0  0  0  0  0  0  0  0  0
   16.9924    0.9099    9.4980 H   0  0  0  0  0  0  0  0  0  0  0  0
   16.7522    1.3394   11.9516 H   0  0  0  0  0  0  0  0  0  0  0  0
   16.7608    3.0792   11.6483 H   0  0  0  0  0  0  0  0  0  0  0  0
   19.0287    2.8859   10.6065 H   0  0  0  0  0  0  0  0  0  0  0  0
   19.0204    1.1465   10.9120 H   0  0  0  0  0  0  0  0  0  0  0  0
   18.7798    1.5780   13.3653 H   0  0  0  0  0  0  0  0  0  0  0  0
   18.7861    3.3176   13.0603 H   0  0  0  0  0  0  0  0  0  0  0  0
   21.0543    3.1263   12.0188 H   0  0  0  0  0  0  0  0  0  0  0  0
   21.0483    1.3871   12.3260 H   0  0  0  0  0  0  0  0  0  0  0  0
   20.8071    1.8207   14.7789 H   0  0  0  0  0  0  0  0  0  0  0  0
   20.8110    3.5599   14.4722 H   0  0  0  0  0  0  0  0  0  0  0  0
   23.0795    3.3708   13.4308 H   0  0  0  0  0  0  0  0  0  0  0  0
   23.0758    1.6319   13.7396 H   0  0  0  0  0  0  0  0  0  0  0  0
   22.8346    2.0674   16.1921 H   0  0  0  0  0  0  0  0  0  0  0  0
   22.8362    3.8064   15.8839 H   0  0  0  0  0  0  0  0  0  0  0  0
   25.1044    3.6200   14.8426 H   0  0  0  0  0  0  0  0  0  0  0  0
   25.1031    1.8810   15.1507 H   0  0  0  0  0  0  0  0  0  0  0  0
   24.8627    2.3151   17.6034 H   0  0  0  0  0  0  0  0  0  0  0  0
   24.8620    4.0542   17.2961 H   0  0  0  0  0  0  0  0  0  0  0  0
   27.1299    3.8711   16.2535 H   0  0  0  0  0  0  0  0  0  0  0  0
   27.1309    2.1320   16.5607 H   0  0  0  0  0  0  0  0  0  0  0  0
   26.8899    2.5654   19.0141 H   0  0  0  0  0  0  0  0  0  0  0  0
   26.8890    4.3045   18.7067 H   0  0  0  0  0  0  0  0  0  0  0  0
   29.1569    4.1214   17.6640 H   0  0  0  0  0  0  0  0  0  0  0  0
   29.1579    2.3823   17.9714 H   0  0  0  0  0  0  0  0  0  0  0  0
   28.9167    2.8158   20.4247 H   0  0  0  0  0  0  0  0  0  0  0  0
   28.9157    4.5549   20.1172 H   0  0  0  0  0  0  0  0  0  0  0  0
   31.1840    4.3710   19.0740 H   0  0  0  0  0  0  0  0  0  0  0  0
   31.1848    2.6323   19.3835 H   0  0  0  0  0  0  0  0  0  0  0  0
   30.9435    3.0690   21.8363 H   0  0  0  0  0  0  0  0  0  0  0  0
   30.9426    4.8077   21.5265 H   0  0  0  0  0  0  0  0  0  0  0  0
   33.2108    4.6233   20.4846 H   0  0  0  0  0  0  0  0  0  0  0  0
   33.2118    2.8847   20.7943 H   0  0  0  0  0  0  0  0  0  0  0  0
   32.9703    3.3215   23.2470 H   0  0  0  0  0  0  0  0  0  0  0  0
   32.9694    5.0602   22.9372 H   0  0  0  0  0  0  0  0  0  0  0  0
   35.2380    4.8758   21.8957 H   0  0  0  0  0  0  0  0  0  0  0  0
   35.2387    3.1371   22.2055 H   0  0  0  0  0  0  0  0  0  0  0  0
   34.9956    3.5746   24.6583 H   0  0  0  0  0  0  0  0  0  0  0  0
   34.9969    5.3132   24.3479 H   0  0  0  0  0  0  0  0  0  0  0  0
   37.2657    5.1267   23.3088 H   0  0  0  0  0  0  0  0  0  0  0  0
   37.2645    3.3877   23.6171 H   0  0  0  0  0  0  0  0  0  0  0  0
   37.0227    3.8217   26.0696 H   0  0  0  0  0  0  0  0  0  0  0  0
   37.0220    5.5608   25.7625 H   0  0  0  0  0  0  0  0  0  0  0  0
   39.2909    5.3790   24.7228 H   0  0  0  0  0  0  0  0  0  0  0  0
   39.2917    3.6394   25.0277 H   0  0  0  0  0  0  0  0  0  0  0  0
   39.0486    4.0704   27.4819 H   0  0  0  0  0  0  0  0  0  0  0  0
   39.0503    5.8098   27.1761 H   0  0  0  0  0  0  0  0  0  0  0  0
   41.3191    5.6236   26.1343 H   0  0  0  0  0  0  0  0  0  0  0  0
   41.3167    3.8845   26.4412 H   0  0  0  0  0  0  0  0  0  0  0  0
   41.0768    4.3170   28.8943 H   0  0  0  0  0  0  0  0  0  0  0  0
   41.0785    6.0563   28.5884 H   0  0  0  0  0  0  0  0  0  0  0  0
   43.3460    5.8715   27.5461 H   0  0  0  0  0  0  0  0  0  0  0  0
   43.3449    4.1320   27.8510 H   0  0  0  0  0  0  0  0  0  0  0  0
   43.1046    4.5628   30.3051 H   0  0  0  0  0  0  0  0  0  0  0  0
   43.1059    6.3022   29.9997 H   0  0  0  0  0  0  0  0  0  0  0  0
   45.3741    6.1176   28.9575 H   0  0  0  0  0  0  0  0  0  0  0  0
   45.3728    4.3781   29.2630 H   0  0  0  0  0  0  0  0  0  0  0  0
   45.1321    4.8094   31.7168 H   0  0  0  0  0  0  0  0  0  0  0  0
   45.1335    6.5487   31.4113 H   0  0  0  0  0  0  0  0  0  0  0  0
   47.4023    6.3651   30.3712 H   0  0  0  0  0  0  0  0  0  0  0  0
   47.4012    4.6252   30.6746 H   0  0  0  0  0  0  0  0  0  0  0  0
   47.1604    5.0524   33.1287 H   0  0  0  0  0  0  0  0  0  0  0  0
   47.1594    6.7924   32.8262 H   0  0  0  0  0  0  0  0  0  0  0  0
   49.4303    6.6121   31.7873 H   0  0  0  0  0  0  0  0  0  0  0  0
   49.4316    4.8730   32.0923 H   0  0  0  0  0  0  0  0  0  0  0  0
   49.1867    5.3021   34.5462 H   0  0  0  0  0  0  0  0  0  0  0  0
   49.1823    7.0423   34.2431 H   0  0  0  0  0  0  0  0  0  0  0  0
   51.4560    6.8651   33.2088 H   0  0  0  0  0  0  0  0  0  0  0  0
   51.4594    5.1255   33.5190 H   0  0  0  0  0  0  0  0  0  0  0  0
   51.2174    5.5555   35.9698 H   0  0  0  0  0  0  0  0  0  0  0  0
   51.2152    7.2963   35.6644 H   0  0  0  0  0  0  0  0  0  0  0  0
   53.4777    7.1111   34.6119 H   0  0  0  0  0  0  0  0  0  0  0  0
   53.4790    5.3734   34.9198 H   0  0  0  0  0  0  0  0  0  0  0  0
   53.2936    5.8143   37.3887 H   0  0  0  0  0  0  0  0  0  0  0  0
   53.2872    7.5405   37.0850 H   0  0  0  0  0  0  0  0  0  0  0  0
   55.5228    7.3696   35.9739 H   0  0  0  0  0  0  0  0  0  0  0  0
   55.5319    5.6125   36.2922 H   0  0  0  0  0  0  0  0  0  0  0  0
   57.4527    7.6112   37.3162 H   0  0  0  0  0  0  0  0  0  0  0  0
   57.4444    5.8497   37.6091 H   0  0  0  0  0  0  0  0  0  0  0  0
   57.1687    8.0313   39.7282 H   0  0  0  0  0  0  0  0  0  0  0  0
   58.6365    7.0923   39.4172 H   0  0  0  0  0  0  0  0  0  0  0  0
   57.3832    4.9774   39.9861 H   0  0  0  0  0  0  0  0  0  0  0  0
   55.9338    5.9388   40.3106 H   0  0  0  0  0  0  0  0  0  0  0  0
   58.5885    6.2092   41.7983 H   0  0  0  0  0  0  0  0  0  0  0  0
   57.1169    5.3981   42.4049 H   0  0  0  0  0  0  0  0  0  0  0  0
   58.4812    7.7713   43.5717 H   0  0  0  0  0  0  0  0  0  0  0  0
   57.0269    6.9746   44.1989 H   0  0  0  0  0  0  0  0  0  0  0  0
   55.7221    9.0787   43.8236 H   0  0  0  0  0  0  0  0  0  0  0  0
   57.1877    9.8730   43.2197 H   0  0  0  0  0  0  0  0  0  0  0  0
   55.6188   10.6377   45.6274 H   0  0  0  0  0  0  0  0  0  0  0  0
   57.0885   11.4311   44.9974 H   0  0  0  0  0  0  0  0  0  0  0  0
   56.7987   10.0922   47.7353 H   0  0  0  0  0  0  0  0  0  0  0  0
   56.7827   11.8385   47.4432 H   0  0  0  0  0  0  0  0  0  0  0  0
   59.1221   11.6695   46.5058 H   0  0  0  0  0  0  0  0  0  0  0  0
   59.1295    9.9462   46.8093 H   0  0  0  0  0  0  0  0  0  0  0  0
   58.8046   10.3435   49.2486 H   0  0  0  0  0  0  0  0  0  0  0  0
   58.8024   12.1049   48.9490 H   0  0  0  0  0  0  0  0  0  0  0  0
   60.7474   10.5810   50.5895 H   0  0  0  0  0  0  0  0  0  0  0  0
   60.7444   12.3283   50.2919 H   0  0  0  0  0  0  0  0  0  0  0  0
   62.9632   12.1360   49.1535 H   0  0  0  0  0  0  0  0  0  0  0  0
   62.9663   10.3895   49.4624 H   0  0  0  0  0  0  0  0  0  0  0  0
   64.9188   12.3767   50.5093 H   0  0  0  0  0  0  0  0  0  0  0  0
   64.9107   10.6157   50.7993 H   0  0  0  0  0  0  0  0  0  0  0  0
   64.6423   12.7986   52.9236 H   0  0  0  0  0  0  0  0  0  0  0  0
   66.1071   11.8576   52.6082 H   0  0  0  0  0  0  0  0  0  0  0  0
   64.8582    9.7500   53.1954 H   0  0  0  0  0  0  0  0  0  0  0  0
   63.4100   10.7110   53.5221 H   0  0  0  0  0  0  0  0  0  0  0  0
   66.0721   10.9760   55.0015 H   0  0  0  0  0  0  0  0  0  0  0  0
   64.6021   10.1685   55.6104 H   0  0  0  0  0  0  0  0  0  0  0  0
   65.9871   12.5258   56.7884 H   0  0  0  0  0  0  0  0  0  0  0  0
   64.5207   11.7245   57.4206 H   0  0  0  0  0  0  0  0  0  0  0  0
   64.6901   14.6385   56.4850 H   0  0  0  0  0  0  0  0  0  0  0  0
   64.6356   14.0969   58.1799 H   0  0  0  0  0  0  0  0  0  0  0  0
   63.2417   13.8506   57.0998 H   0  0  0  0  0  0  0  0  0  0  0  0
  1  2  1  0  0  0  0
  1 80  1  0  0  0  0
  2  3  1  0  0  0  0
  2 81  1  0  0  0  0
  2 82  1  0  0  0  0
  3  4  1  0  0  0  0
  3  5  1  0  0  0  0
  3 83  1  0  0  0  0
  4 84  1  0  0  0  0
  4 85  1  0  0  0  0
  4 86  1  0  0  0  0
  5  6  1  0  0  0  0
  5 87  1  0  0  0  0
  5 88  1  0  0  0  0
  6  7  1  0  0  0  0
  6 89  1  0  0  0  0
  6 90  1  0  0  0  0
  7  8  1  0  0  0  0
  7 91  1  0  0  0  0
  7 92  1  0  0  0  0
  8  9  1  0  0  0  0
  8 93  1  0  0  0  0
  8 94  1  0  0  0  0
  9 10  1  0  0  0  0
  9 95  1  0  0  0  0
  9 96  1  0  0  0  0
 10 11  1  0  0  0  0
 10 97  1  0  0  0  0
 10 98  1  0  0  0  0
 11 12  1  0  0  0  0
 11 99  1  0  0  0  0
 11100  1  0  0  0  0
 12 13  1  0  0  0  0
 12101  1  0  0  0  0
 12102  1  0  0  0  0
 13 14  1  0  0  0  0
 13103  1  0  0  0  0
 13104  1  0  0  0  0
 14 15  1  0  0  0  0
 14105  1  0  0  0  0
 14106  1  0  0  0  0
 15 16  1  0  0  0  0
 15107  1  0  0  0  0
 15108  1  0  0  0  0
 16 17  1  0  0  0  0
 16109  1  0  0  0  0
 16110  1  0  0  0  0
 17 18  1  0  0  0  0
 17111  1  0  0  0  0
 17112  1  0  0  0  0
 18 19  1  0  0  0  0
 18113  1  0  0  0  0
 18114  1  0  0  0  0
 19 20  1  0  0  0  0
 19115  1  0  0  0  0
 19116  1  0  0  0  0
 20 21  1  0  0  0  0
 20117  1  0  0  0  0
 20118  1  0  0  0  0
 21 22  1  0  0  0  0
 21119  1  0  0  0  0
 21120  1  0  0  0  0
 22 23  1  0  0  0  0
 22121  1  0  0  0  0
 22122  1  0  0  0  0
 23 24  1  0  0  0  0
 23123  1  0  0  0  0
 23124  1  0  0  0  0
 24 25  1  0  0  0  0
 24125  1  0  0  0  0
 24126  1  0  0  0  0
 25 26  1  0  0  0  0
 25127  1  0  0  0  0
 25128  1  0  0  0  0
 26 27  1  0  0  0  0
 26129  1  0  0  0  0
 26130  1  0  0  0  0
 27 28  1  0  0  0  0
 27131  1  0  0  0  0
 27132  1  0  0  0  0
 28 29  1  0  0  0  0
 28133  1  0  0  0  0
 28134  1  0  0  0  0
 29 30  1  0  0  0  0
 29135  1  0  0  0  0
 29136  1  0  0  0  0
 30 31  1  0  0  0  0
 30137  1  0  0  0  0
 30138  1  0  0  0  0
 31 32  1  0  0  0  0
 31139  1  0  0  0  0
 31140  1  0  0  0  0
 32 33  1  0  0  0  0
 32141  1  0  0  0  0
 32142  1  0  0  0  0
 33 34  1  0  0  0  0
 33143  1  0  0  0  0
 33144  1  0  0  0  0
 34 35  1  0  0  0  0
 34145  1  0  0  0  0
 34146  1  0  0  0  0
 35 36  1  0  0  0  0
 35147  1  0  0  0  0
 35148  1  0  0  0  0
 36 37  1  0  0  0  0
 36149  1  0  0  0  0
 36150  1  0  0  0  0
 37 38  1  0  0  0  0
 37151  1  0  0  0  0
 37152  1  0  0  0  0
 38 39  1  0  0  0  0
 38153  1  0  0  0  0
 38154  1  0  0  0  0
 39 40  1  0  0  0  0
 39155  1  0  0  0  0
 39156  1  0  0  0  0
 40 41  1  0  0  0  0
 40157  1  0  0  0  0
 40158  1  0  0  0  0
 41 42  1  0  0  0  0
 41159  1  0  0  0  0
 41160  1  0  0  0  0
 42 43  1  0  0  0  0
 42161  1  0  0  0  0
 42162  1  0  0  0  0
 43 44  1  0  0  0  0
 43163  1  0  0  0  0
 43164  1  0  0  0  0
 44 45  1  0  0  0  0
 44165  1  0  0  0  0
 44166  1  0  0  0  0
 45 46  1  0  0  0  0
 45167  1  0  0  0  0
 45168  1  0  0  0  0
 46 47  1  0  0  0  0
 46169  1  0  0  0  0
 46170  1  0  0  0  0
 47 48  1  0  0  0  0
 47171  1  0  0  0  0
 47172  1  0  0  0  0
 48 49  1  0  0  0  0
 48173  1  0  0  0  0
 48174  1  0  0  0  0
 49 50  1  0  0  0  0
 49175  1  0  0  0  0
 49176  1  0  0  0  0
 50 51  1  0  0  0  0
 50177  1  0  0  0  0
 50178  1  0  0  0  0
 51 52  1  0  0  0  0
 51179  1  0  0  0  0
 51180  1  0  0  0  0
 52 53  1  0  0  0  0
 52181  1  0  0  0  0
 52182  1  0  0  0  0
 53 54  1  0  0  0  0
 53183  1  0  0  0  0
 53184  1  0  0  0  0
 54 55  1  0  0  0  0
 54185  1  0  0  0  0
 54186  1  0  0  0  0
 55 56  1  0  0  0  0
 55187  1  0  0  0  0
 55188  1  0  0  0  0
 56 57  1  0  0  0  0
 57 58  1  0  0  0  0
 57189  1  0  0  0  0
 57190  1  0  0  0  0
 58 59  1  0  0  0  0
 58191  1  0  0  0  0
 58192  1  0  0  0  0
 59 60  1  0  0  0  0
 59193  1  0  0  0  0
 59194  1  0  0  0  0
 60 61  1  0  0  0  0
 60195  1  0  0  0  0
 60196  1  0  0  0  0
 61 62  1  0  0  0  0
 62 63  1  0  0  0  0
 62197  1  0  0  0  0
 62198  1  0  0  0  0
 63 64  1  0  0  0  0
 63199  1  0  0  0  0
 63200  1  0  0  0  0
 64 65  1  0  0  0  0
 65 66  1  0  0  0  0
 65201  1  0  0  0  0
 65202  1  0  0  0  0
 66 67  1  0  0  0  0
 66203  1  0  0  0  0
 66204  1  0  0  0  0
 67 68  1  0  0  0  0
 67205  1  0  0  0  0
 67206  1  0  0  0  0
 68 69  1  0  0  0  0
 68207  1  0  0  0  0
 68208  1  0  0  0  0
 69 70  1  0  0  0  0
 70 71  1  0  0  0  0
 70209  1  0  0  0  0
 70210  1  0  0  0  0
 71 72  1  0  0  0  0
 71211  1  0  0  0  0
 71212  1  0  0  0  0
 72 73  1  0  0  0  0
 73 74  1  0  0  0  0
 73213  1  0  0  0  0
 73214  1  0  0  0  0
 74 75  1  0  0  0  0
 74215  1  0  0  0  0
 74216  1  0  0  0  0
 75 76  1  0  0  0  0
 75217  1  0  0  0  0
 75218  1  0  0  0  0
 76 77  1  0  0  0  0
 76219  1  0  0  0  0
 76220  1  0  0  0  0
 77 78  1  0  0  0  0
 78 79  1  0  0  0  0
 78221  1  0  0  0  0
 78222  1  0  0  0  0
 79223  1  0  0  0  0
 79224  1  0  0  0  0
 79225  1  0  0  0  0
M  END
$$$$
