
 OpenBabel04232216543D

233232  0  0  0  0  0  0  0  0999 V2000
    8.7336    3.5255    4.3205 C   0  0  0  0  0  0  0  0  0  0  0  0
    8.2359    2.6434    3.1922 C   0  0  0  0  0  0  0  0  0  0  0  0
    8.7445    3.1600    1.8507 C   0  0  0  0  0  0  0  0  0  0  0  0
    8.2449    2.2769    0.7151 C   0  0  0  0  0  0  0  0  0  0  0  0
    8.7444    2.7957   -0.5531 N   0  0  0  0  0  0  0  0  0  0  0  0
    8.2719    1.9627   -1.5986 N   0  0  0  0  0  0  0  0  0  0  0  0
    8.7418    2.4525   -2.8207 N   0  0  0  0  0  0  0  0  0  0  0  0
    8.2788    1.6240   -3.8607 N   0  0  0  0  0  0  0  0  0  0  0  0
    8.7423    2.1159   -5.1038 N   0  0  0  0  0  0  0  0  0  0  0  0
   10.1870    2.1236   -5.1462 N   0  0  0  0  0  0  0  0  0  0  0  0
   10.6767    2.6127   -6.3815 N   0  0  0  0  0  0  0  0  0  0  0  0
   12.1003    2.6159   -6.3860 N   0  0  0  0  0  0  0  0  0  0  0  0
   12.5779    3.1053   -7.6267 N   0  0  0  0  0  0  0  0  0  0  0  0
   13.9909    3.1080   -7.6327 N   0  0  0  0  0  0  0  0  0  0  0  0
   14.4732    3.5955   -8.8682 N   0  0  0  0  0  0  0  0  0  0  0  0
   15.8935    3.5936   -8.8568 N   0  0  0  0  0  0  0  0  0  0  0  0
   16.3517    4.1018  -10.1420 C   0  0  0  0  0  0  0  0  0  0  0  0
   17.8728    4.1047  -10.1496 C   0  0  0  0  0  0  0  0  0  0  0  0
   18.3883    4.6332  -11.4787 C   0  0  0  0  0  0  0  0  0  0  0  0
   19.9064    4.6382  -11.4857 C   0  0  0  0  0  0  0  0  0  0  0  0
   20.4184    5.1678  -12.8123 C   0  0  0  0  0  0  0  0  0  0  0  0
   21.9352    5.1701  -12.8180 C   0  0  0  0  0  0  0  0  0  0  0  0
   22.4461    5.6977  -14.1448 C   0  0  0  0  0  0  0  0  0  0  0  0
   23.9624    5.6978  -14.1507 C   0  0  0  0  0  0  0  0  0  0  0  0
   24.4729    6.2253  -15.4775 C   0  0  0  0  0  0  0  0  0  0  0  0
   25.9892    6.2236  -15.4839 C   0  0  0  0  0  0  0  0  0  0  0  0
   26.4996    6.7511  -16.8107 C   0  0  0  0  0  0  0  0  0  0  0  0
   28.0159    6.7493  -16.8171 C   0  0  0  0  0  0  0  0  0  0  0  0
   28.5263    7.2768  -18.1438 C   0  0  0  0  0  0  0  0  0  0  0  0
   30.0425    7.2751  -18.1503 C   0  0  0  0  0  0  0  0  0  0  0  0
   30.5529    7.8025  -19.4770 C   0  0  0  0  0  0  0  0  0  0  0  0
   32.0692    7.8008  -19.4835 C   0  0  0  0  0  0  0  0  0  0  0  0
   32.5796    8.3283  -20.8102 C   0  0  0  0  0  0  0  0  0  0  0  0
   34.0958    8.3247  -20.8174 C   0  0  0  0  0  0  0  0  0  0  0  0
   34.6062    8.8521  -22.1441 C   0  0  0  0  0  0  0  0  0  0  0  0
   36.1224    8.8504  -22.1506 C   0  0  0  0  0  0  0  0  0  0  0  0
   36.6329    9.3797  -23.4765 C   0  0  0  0  0  0  0  0  0  0  0  0
   38.1491    9.3798  -23.4822 C   0  0  0  0  0  0  0  0  0  0  0  0
   38.6595    9.9111  -24.8075 C   0  0  0  0  0  0  0  0  0  0  0  0
   40.1758    9.9131  -24.8124 C   0  0  0  0  0  0  0  0  0  0  0  0
   40.6862   10.4462  -26.1369 C   0  0  0  0  0  0  0  0  0  0  0  0
   42.2024   10.4482  -26.1418 C   0  0  0  0  0  0  0  0  0  0  0  0
   42.7129   10.9813  -27.4663 C   0  0  0  0  0  0  0  0  0  0  0  0
   44.2291   10.9833  -27.4713 C   0  0  0  0  0  0  0  0  0  0  0  0
   44.7395   11.5164  -28.7957 C   0  0  0  0  0  0  0  0  0  0  0  0
   46.2557   11.5184  -28.8007 C   0  0  0  0  0  0  0  0  0  0  0  0
   46.7662   12.0514  -30.1252 C   0  0  0  0  0  0  0  0  0  0  0  0
   48.2824   12.0535  -30.1301 C   0  0  0  0  0  0  0  0  0  0  0  0
   48.7928   12.5866  -31.4546 C   0  0  0  0  0  0  0  0  0  0  0  0
   50.3091   12.5904  -31.4588 C   0  0  0  0  0  0  0  0  0  0  0  0
   50.8195   13.1235  -32.7833 C   0  0  0  0  0  0  0  0  0  0  0  0
   52.3357   13.1255  -32.7882 C   0  0  0  0  0  0  0  0  0  0  0  0
   52.8462   13.6605  -34.1119 C   0  0  0  0  0  0  0  0  0  0  0  0
   54.3624   13.6643  -34.1161 C   0  0  0  0  0  0  0  0  0  0  0  0
   54.8728   14.1974  -35.4406 C   0  0  0  0  0  0  0  0  0  0  0  0
   56.3890   14.1994  -35.4456 C   0  0  0  0  0  0  0  0  0  0  0  0
   56.8995   14.7344  -36.7693 C   0  0  0  0  0  0  0  0  0  0  0  0
   58.4157   14.7345  -36.7750 C   0  0  0  0  0  0  0  0  0  0  0  0
   58.9262   15.2695  -38.0987 C   0  0  0  0  0  0  0  0  0  0  0  0
   60.4424   15.2715  -38.1036 C   0  0  0  0  0  0  0  0  0  0  0  0
   60.9528   15.8064  -39.4274 C   0  0  0  0  0  0  0  0  0  0  0  0
   62.4690   15.8084  -39.4323 C   0  0  0  0  0  0  0  0  0  0  0  0
   62.9795   16.3434  -40.7560 C   0  0  0  0  0  0  0  0  0  0  0  0
   64.4957   16.3454  -40.7610 C   0  0  0  0  0  0  0  0  0  0  0  0
   65.0061   16.8804  -42.0847 C   0  0  0  0  0  0  0  0  0  0  0  0
   66.5224   16.8824  -42.0896 C   0  0  0  0  0  0  0  0  0  0  0  0
   67.0328   17.4173  -43.4134 C   0  0  0  0  0  0  0  0  0  0  0  0
   68.5490   17.4193  -43.4183 C   0  0  0  0  0  0  0  0  0  0  0  0
   69.0595   17.9543  -44.7420 C   0  0  0  0  0  0  0  0  0  0  0  0
   70.5757   17.9544  -44.7477 C   0  0  0  0  0  0  0  0  0  0  0  0
   71.0861   18.4894  -46.0714 C   0  0  0  0  0  0  0  0  0  0  0  0
   72.6024   18.4895  -46.0772 C   0  0  0  0  0  0  0  0  0  0  0  0
   73.1128   19.0245  -47.4009 C   0  0  0  0  0  0  0  0  0  0  0  0
   74.6290   19.0246  -47.4066 C   0  0  0  0  0  0  0  0  0  0  0  0
   75.1396   19.5596  -48.7303 C   0  0  0  0  0  0  0  0  0  0  0  0
   76.6560   19.5616  -48.7355 C   0  0  0  0  0  0  0  0  0  0  0  0
   77.1672   20.0967  -50.0594 C   0  0  0  0  0  0  0  0  0  0  0  0
   78.6846   20.0989  -50.0649 C   0  0  0  0  0  0  0  0  0  0  0  0
   79.1979   20.6360  -51.3885 C   0  0  0  0  0  0  0  0  0  0  0  0
   80.7180   20.6426  -51.3994 C   0  0  0  0  0  0  0  0  0  0  0  0
   81.2271   21.1789  -52.7210 C   0  0  0  0  0  0  0  0  0  0  0  0
    8.3704    3.1554    5.2829 H   0  0  0  0  0  0  0  0  0  0  0  0
    8.3808    4.5533    4.1896 H   0  0  0  0  0  0  0  0  0  0  0  0
    9.8279    3.5377    4.3451 H   0  0  0  0  0  0  0  0  0  0  0  0
    7.1396    2.6276    3.1961 H   0  0  0  0  0  0  0  0  0  0  0  0
    8.5814    1.6151    3.3515 H   0  0  0  0  0  0  0  0  0  0  0  0
    9.8416    3.1772    1.8576 H   0  0  0  0  0  0  0  0  0  0  0  0
    8.4010    4.1921    1.7028 H   0  0  0  0  0  0  0  0  0  0  0  0
    7.1472    2.2812    0.7170 H   0  0  0  0  0  0  0  0  0  0  0  0
    8.5825    1.2458    0.8763 H   0  0  0  0  0  0  0  0  0  0  0  0
    9.7632    2.7628   -0.5648 H   0  0  0  0  0  0  0  0  0  0  0  0
    7.2550    1.9692   -1.6516 H   0  0  0  0  0  0  0  0  0  0  0  0
    9.7597    2.4619   -2.8378 H   0  0  0  0  0  0  0  0  0  0  0  0
    7.2511    1.5992   -3.8186 H   0  0  0  0  0  0  0  0  0  0  0  0
    8.3771    3.0639   -5.2449 H   0  0  0  0  0  0  0  0  0  0  0  0
   10.5344    1.1717   -5.0122 H   0  0  0  0  0  0  0  0  0  0  0  0
   10.3662    3.5713   -6.5286 H   0  0  0  0  0  0  0  0  0  0  0  0
   12.4434    1.6660   -6.2467 H   0  0  0  0  0  0  0  0  0  0  0  0
   12.2381    4.0570   -7.7595 H   0  0  0  0  0  0  0  0  0  0  0  0
   14.3273    2.1558   -7.4967 H   0  0  0  0  0  0  0  0  0  0  0  0
   14.1343    4.5486   -8.9974 H   0  0  0  0  0  0  0  0  0  0  0  0
   16.2248    2.6384   -8.7238 H   0  0  0  0  0  0  0  0  0  0  0  0
   15.9906    5.1262  -10.2972 H   0  0  0  0  0  0  0  0  0  0  0  0
   15.9822    3.4797  -10.9672 H   0  0  0  0  0  0  0  0  0  0  0  0
   18.2538    3.0884   -9.9874 H   0  0  0  0  0  0  0  0  0  0  0  0
   18.2526    4.7331   -9.3337 H   0  0  0  0  0  0  0  0  0  0  0  0
   18.0146    5.6507  -11.6469 H   0  0  0  0  0  0  0  0  0  0  0  0
   18.0169    4.0069  -12.2989 H   0  0  0  0  0  0  0  0  0  0  0  0
   20.2835    3.6214  -11.3219 H   0  0  0  0  0  0  0  0  0  0  0  0
   20.2813    5.2643  -10.6669 H   0  0  0  0  0  0  0  0  0  0  0  0
   20.0445    6.1858  -12.9769 H   0  0  0  0  0  0  0  0  0  0  0  0
   20.0446    4.5431  -13.6327 H   0  0  0  0  0  0  0  0  0  0  0  0
   22.3102    4.1527  -12.6527 H   0  0  0  0  0  0  0  0  0  0  0  0
   22.3102    5.7963  -11.9992 H   0  0  0  0  0  0  0  0  0  0  0  0
   22.0728    6.7158  -14.3098 H   0  0  0  0  0  0  0  0  0  0  0  0
   22.0705    5.0724  -14.9641 H   0  0  0  0  0  0  0  0  0  0  0  0
   24.3359    4.6798  -13.9859 H   0  0  0  0  0  0  0  0  0  0  0  0
   24.3383    6.3231  -13.3317 H   0  0  0  0  0  0  0  0  0  0  0  0
   24.1007    7.2440  -15.6417 H   0  0  0  0  0  0  0  0  0  0  0  0
   24.0961    5.6009  -16.2967 H   0  0  0  0  0  0  0  0  0  0  0  0
   26.3614    5.2050  -15.3198 H   0  0  0  0  0  0  0  0  0  0  0  0
   26.3661    6.8480  -14.6647 H   0  0  0  0  0  0  0  0  0  0  0  0
   26.1274    7.7697  -16.9748 H   0  0  0  0  0  0  0  0  0  0  0  0
   26.1227    6.1266  -17.6299 H   0  0  0  0  0  0  0  0  0  0  0  0
   28.3881    5.7307  -16.6529 H   0  0  0  0  0  0  0  0  0  0  0  0
   28.3928    7.3738  -15.9979 H   0  0  0  0  0  0  0  0  0  0  0  0
   28.1541    8.2954  -18.3080 H   0  0  0  0  0  0  0  0  0  0  0  0
   28.1494    6.6524  -18.9631 H   0  0  0  0  0  0  0  0  0  0  0  0
   30.4147    6.2564  -17.9861 H   0  0  0  0  0  0  0  0  0  0  0  0
   30.4194    7.8995  -17.3311 H   0  0  0  0  0  0  0  0  0  0  0  0
   30.1807    8.8212  -19.6412 H   0  0  0  0  0  0  0  0  0  0  0  0
   30.1760    7.1781  -20.2962 H   0  0  0  0  0  0  0  0  0  0  0  0
   32.4414    6.7822  -19.3193 H   0  0  0  0  0  0  0  0  0  0  0  0
   32.4461    8.4252  -18.6642 H   0  0  0  0  0  0  0  0  0  0  0  0
   32.2085    9.3474  -20.9737 H   0  0  0  0  0  0  0  0  0  0  0  0
   32.2015    7.7047  -21.6295 H   0  0  0  0  0  0  0  0  0  0  0  0
   34.4669    7.3055  -20.6539 H   0  0  0  0  0  0  0  0  0  0  0  0
   34.4739    8.9482  -19.9980 H   0  0  0  0  0  0  0  0  0  0  0  0
   34.2340    9.8708  -22.3083 H   0  0  0  0  0  0  0  0  0  0  0  0
   34.2293    8.2277  -22.9633 H   0  0  0  0  0  0  0  0  0  0  0  0
   36.4947    7.8315  -21.9878 H   0  0  0  0  0  0  0  0  0  0  0  0
   36.4994    9.4737  -21.3305 H   0  0  0  0  0  0  0  0  0  0  0  0
   36.2595   10.3981  -23.6399 H   0  0  0  0  0  0  0  0  0  0  0  0
   36.2571    8.7556  -24.2965 H   0  0  0  0  0  0  0  0  0  0  0  0
   38.5225    8.3613  -23.3203 H   0  0  0  0  0  0  0  0  0  0  0  0
   38.5248   10.0028  -22.6614 H   0  0  0  0  0  0  0  0  0  0  0  0
   38.2850   10.9291  -24.9701 H   0  0  0  0  0  0  0  0  0  0  0  0
   38.2850    9.2873  -25.6282 H   0  0  0  0  0  0  0  0  0  0  0  0
   40.5503    8.8948  -24.6512 H   0  0  0  0  0  0  0  0  0  0  0  0
   40.5503   10.5357  -23.9908 H   0  0  0  0  0  0  0  0  0  0  0  0
   40.3116   11.4644  -26.2981 H   0  0  0  0  0  0  0  0  0  0  0  0
   40.3116    9.8235  -26.9585 H   0  0  0  0  0  0  0  0  0  0  0  0
   42.5770    9.4299  -25.9807 H   0  0  0  0  0  0  0  0  0  0  0  0
   42.5770   11.0708  -25.3202 H   0  0  0  0  0  0  0  0  0  0  0  0
   42.3383   11.9995  -27.6275 H   0  0  0  0  0  0  0  0  0  0  0  0
   42.3383   10.3586  -28.2880 H   0  0  0  0  0  0  0  0  0  0  0  0
   44.6037    9.9650  -27.3101 H   0  0  0  0  0  0  0  0  0  0  0  0
   44.6037   11.6059  -26.6496 H   0  0  0  0  0  0  0  0  0  0  0  0
   44.3649   12.5346  -28.9569 H   0  0  0  0  0  0  0  0  0  0  0  0
   44.3649   10.8937  -29.6174 H   0  0  0  0  0  0  0  0  0  0  0  0
   46.6303   10.5001  -28.6395 H   0  0  0  0  0  0  0  0  0  0  0  0
   46.6303   12.1410  -27.9790 H   0  0  0  0  0  0  0  0  0  0  0  0
   46.3916   13.0697  -30.2863 H   0  0  0  0  0  0  0  0  0  0  0  0
   46.3916   11.4288  -30.9468 H   0  0  0  0  0  0  0  0  0  0  0  0
   48.6570   11.0352  -29.9689 H   0  0  0  0  0  0  0  0  0  0  0  0
   48.6570   12.6761  -29.3085 H   0  0  0  0  0  0  0  0  0  0  0  0
   48.4171   13.6043  -31.6164 H   0  0  0  0  0  0  0  0  0  0  0  0
   48.4194   11.9630  -32.2761 H   0  0  0  0  0  0  0  0  0  0  0  0
   50.6848   11.5727  -31.2969 H   0  0  0  0  0  0  0  0  0  0  0  0
   50.6825   13.2139  -30.6373 H   0  0  0  0  0  0  0  0  0  0  0  0
   50.4449   14.1417  -32.9444 H   0  0  0  0  0  0  0  0  0  0  0  0
   50.4449   12.5009  -33.6049 H   0  0  0  0  0  0  0  0  0  0  0  0
   52.7103   12.1070  -32.6285 H   0  0  0  0  0  0  0  0  0  0  0  0
   52.7103   13.7470  -31.9657 H   0  0  0  0  0  0  0  0  0  0  0  0
   52.4704   14.6784  -34.2724 H   0  0  0  0  0  0  0  0  0  0  0  0
   52.4727   13.0381  -34.9343 H   0  0  0  0  0  0  0  0  0  0  0  0
   54.7381   12.6466  -33.9543 H   0  0  0  0  0  0  0  0  0  0  0  0
   54.7358   14.2878  -33.2946 H   0  0  0  0  0  0  0  0  0  0  0  0
   54.4982   15.2157  -35.6018 H   0  0  0  0  0  0  0  0  0  0  0  0
   54.4983   13.5748  -36.2623 H   0  0  0  0  0  0  0  0  0  0  0  0
   56.7636   13.1810  -35.2858 H   0  0  0  0  0  0  0  0  0  0  0  0
   56.7636   14.8209  -34.6230 H   0  0  0  0  0  0  0  0  0  0  0  0
   56.5261   15.7534  -36.9283 H   0  0  0  0  0  0  0  0  0  0  0  0
   56.5237   14.1138  -37.5919 H   0  0  0  0  0  0  0  0  0  0  0  0
   58.7891   13.7155  -36.6159 H   0  0  0  0  0  0  0  0  0  0  0  0
   58.7915   15.3552  -35.9523 H   0  0  0  0  0  0  0  0  0  0  0  0
   58.5516   16.2880  -38.2584 H   0  0  0  0  0  0  0  0  0  0  0  0
   58.5516   14.6480  -38.9212 H   0  0  0  0  0  0  0  0  0  0  0  0
   60.8169   14.2530  -37.9439 H   0  0  0  0  0  0  0  0  0  0  0  0
   60.8170   15.8930  -37.2811 H   0  0  0  0  0  0  0  0  0  0  0  0
   60.5782   16.8249  -39.5871 H   0  0  0  0  0  0  0  0  0  0  0  0
   60.5782   15.1850  -40.2499 H   0  0  0  0  0  0  0  0  0  0  0  0
   62.8436   14.7900  -39.2726 H   0  0  0  0  0  0  0  0  0  0  0  0
   62.8436   16.4299  -38.6098 H   0  0  0  0  0  0  0  0  0  0  0  0
   62.6049   17.3619  -40.9158 H   0  0  0  0  0  0  0  0  0  0  0  0
   62.6049   15.7219  -41.5785 H   0  0  0  0  0  0  0  0  0  0  0  0
   64.8703   15.3269  -40.6012 H   0  0  0  0  0  0  0  0  0  0  0  0
   64.8703   16.9669  -39.9385 H   0  0  0  0  0  0  0  0  0  0  0  0
   64.6316   17.8988  -42.2444 H   0  0  0  0  0  0  0  0  0  0  0  0
   64.6316   16.2589  -42.9072 H   0  0  0  0  0  0  0  0  0  0  0  0
   66.8969   15.8639  -41.9299 H   0  0  0  0  0  0  0  0  0  0  0  0
   66.8969   17.5038  -41.2671 H   0  0  0  0  0  0  0  0  0  0  0  0
   66.6582   18.4358  -43.5731 H   0  0  0  0  0  0  0  0  0  0  0  0
   66.6582   16.7958  -44.2359 H   0  0  0  0  0  0  0  0  0  0  0  0
   68.9236   16.4008  -43.2586 H   0  0  0  0  0  0  0  0  0  0  0  0
   68.9236   18.0408  -42.5958 H   0  0  0  0  0  0  0  0  0  0  0  0
   68.6861   18.9733  -44.9011 H   0  0  0  0  0  0  0  0  0  0  0  0
   68.6837   17.3337  -45.5647 H   0  0  0  0  0  0  0  0  0  0  0  0
   70.9491   16.9354  -44.5887 H   0  0  0  0  0  0  0  0  0  0  0  0
   70.9515   18.5750  -43.9251 H   0  0  0  0  0  0  0  0  0  0  0  0
   70.7127   19.5084  -46.2305 H   0  0  0  0  0  0  0  0  0  0  0  0
   70.7104   17.8687  -46.8941 H   0  0  0  0  0  0  0  0  0  0  0  0
   72.9757   17.4705  -45.9181 H   0  0  0  0  0  0  0  0  0  0  0  0
   72.9781   19.1101  -45.2545 H   0  0  0  0  0  0  0  0  0  0  0  0
   72.7394   20.0435  -47.5599 H   0  0  0  0  0  0  0  0  0  0  0  0
   72.7370   18.4038  -48.2235 H   0  0  0  0  0  0  0  0  0  0  0  0
   75.0024   18.0056  -47.2475 H   0  0  0  0  0  0  0  0  0  0  0  0
   75.0048   19.6452  -46.5839 H   0  0  0  0  0  0  0  0  0  0  0  0
   74.7649   20.5780  -48.8900 H   0  0  0  0  0  0  0  0  0  0  0  0
   74.7649   18.9381  -49.5528 H   0  0  0  0  0  0  0  0  0  0  0  0
   77.0303   18.5431  -48.5756 H   0  0  0  0  0  0  0  0  0  0  0  0
   77.0303   20.1831  -47.9128 H   0  0  0  0  0  0  0  0  0  0  0  0
   76.7919   21.1150  -50.2188 H   0  0  0  0  0  0  0  0  0  0  0  0
   76.7919   19.4751  -50.8816 H   0  0  0  0  0  0  0  0  0  0  0  0
   79.0577   19.0799  -49.9059 H   0  0  0  0  0  0  0  0  0  0  0  0
   79.0577   20.7190  -49.2408 H   0  0  0  0  0  0  0  0  0  0  0  0
   78.8188   21.6533  -51.5463 H   0  0  0  0  0  0  0  0  0  0  0  0
   78.8211   20.0146  -52.2104 H   0  0  0  0  0  0  0  0  0  0  0  0
   81.0957   19.6256  -51.2424 H   0  0  0  0  0  0  0  0  0  0  0  0
   81.0934   21.2643  -50.5784 H   0  0  0  0  0  0  0  0  0  0  0  0
   80.8738   20.5564  -53.5491 H   0  0  0  0  0  0  0  0  0  0  0  0
   82.3196   21.1851  -52.7325 H   0  0  0  0  0  0  0  0  0  0  0  0
   80.8714   22.2014  -52.8825 H   0  0  0  0  0  0  0  0  0  0  0  0
  1  2  1  0  0  0  0
  1 82  1  0  0  0  0
  1 83  1  0  0  0  0
  1 84  1  0  0  0  0
  2  3  1  0  0  0  0
  2 85  1  0  0  0  0
  2 86  1  0  0  0  0
  3  4  1  0  0  0  0
  3 87  1  0  0  0  0
  3 88  1  0  0  0  0
  4  5  1  0  0  0  0
  4 89  1  0  0  0  0
  4 90  1  0  0  0  0
  5  6  1  0  0  0  0
  5 91  1  0  0  0  0
  6  7  1  0  0  0  0
  6 92  1  0  0  0  0
  7  8  1  0  0  0  0
  7 93  1  0  0  0  0
  8  9  1  0  0  0  0
  8 94  1  0  0  0  0
  9 10  1  0  0  0  0
  9 95  1  0  0  0  0
 10 11  1  0  0  0  0
 10 96  1  0  0  0  0
 11 12  1  0  0  0  0
 11 97  1  0  0  0  0
 12 13  1  0  0  0  0
 12 98  1  0  0  0  0
 13 14  1  0  0  0  0
 13 99  1  0  0  0  0
 14 15  1  0  0  0  0
 14100  1  0  0  0  0
 15 16  1  0  0  0  0
 15101  1  0  0  0  0
 16 17  1  0  0  0  0
 16102  1  0  0  0  0
 17 18  1  0  0  0  0
 17103  1  0  0  0  0
 17104  1  0  0  0  0
 18 19  1  0  0  0  0
 18105  1  0  0  0  0
 18106  1  0  0  0  0
 19 20  1  0  0  0  0
 19107  1  0  0  0  0
 19108  1  0  0  0  0
 20 21  1  0  0  0  0
 20109  1  0  0  0  0
 20110  1  0  0  0  0
 21 22  1  0  0  0  0
 21111  1  0  0  0  0
 21112  1  0  0  0  0
 22 23  1  0  0  0  0
 22113  1  0  0  0  0
 22114  1  0  0  0  0
 23 24  1  0  0  0  0
 23115  1  0  0  0  0
 23116  1  0  0  0  0
 24 25  1  0  0  0  0
 24117  1  0  0  0  0
 24118  1  0  0  0  0
 25 26  1  0  0  0  0
 25119  1  0  0  0  0
 25120  1  0  0  0  0
 26 27  1  0  0  0  0
 26121  1  0  0  0  0
 26122  1  0  0  0  0
 27 28  1  0  0  0  0
 27123  1  0  0  0  0
 27124  1  0  0  0  0
 28 29  1  0  0  0  0
 28125  1  0  0  0  0
 28126  1  0  0  0  0
 29 30  1  0  0  0  0
 29127  1  0  0  0  0
 29128  1  0  0  0  0
 30 31  1  0  0  0  0
 30129  1  0  0  0  0
 30130  1  0  0  0  0
 31 32  1  0  0  0  0
 31131  1  0  0  0  0
 31132  1  0  0  0  0
 32 33  1  0  0  0  0
 32133  1  0  0  0  0
 32134  1  0  0  0  0
 33 34  1  0  0  0  0
 33135  1  0  0  0  0
 33136  1  0  0  0  0
 34 35  1  0  0  0  0
 34137  1  0  0  0  0
 34138  1  0  0  0  0
 35 36  1  0  0  0  0
 35139  1  0  0  0  0
 35140  1  0  0  0  0
 36 37  1  0  0  0  0
 36141  1  0  0  0  0
 36142  1  0  0  0  0
 37 38  1  0  0  0  0
 37143  1  0  0  0  0
 37144  1  0  0  0  0
 38 39  1  0  0  0  0
 38145  1  0  0  0  0
 38146  1  0  0  0  0
 39 40  1  0  0  0  0
 39147  1  0  0  0  0
 39148  1  0  0  0  0
 40 41  1  0  0  0  0
 40149  1  0  0  0  0
 40150  1  0  0  0  0
 41 42  1  0  0  0  0
 41151  1  0  0  0  0
 41152  1  0  0  0  0
 42 43  1  0  0  0  0
 42153  1  0  0  0  0
 42154  1  0  0  0  0
 43 44  1  0  0  0  0
 43155  1  0  0  0  0
 43156  1  0  0  0  0
 44 45  1  0  0  0  0
 44157  1  0  0  0  0
 44158  1  0  0  0  0
 45 46  1  0  0  0  0
 45159  1  0  0  0  0
 45160  1  0  0  0  0
 46 47  1  0  0  0  0
 46161  1  0  0  0  0
 46162  1  0  0  0  0
 47 48  1  0  0  0  0
 47163  1  0  0  0  0
 47164  1  0  0  0  0
 48 49  1  0  0  0  0
 48165  1  0  0  0  0
 48166  1  0  0  0  0
 49 50  1  0  0  0  0
 49167  1  0  0  0  0
 49168  1  0  0  0  0
 50 51  1  0  0  0  0
 50169  1  0  0  0  0
 50170  1  0  0  0  0
 51 52  1  0  0  0  0
 51171  1  0  0  0  0
 51172  1  0  0  0  0
 52 53  1  0  0  0  0
 52173  1  0  0  0  0
 52174  1  0  0  0  0
 53 54  1  0  0  0  0
 53175  1  0  0  0  0
 53176  1  0  0  0  0
 54 55  1  0  0  0  0
 54177  1  0  0  0  0
 54178  1  0  0  0  0
 55 56  1  0  0  0  0
 55179  1  0  0  0  0
 55180  1  0  0  0  0
 56 57  1  0  0  0  0
 56181  1  0  0  0  0
 56182  1  0  0  0  0
 57 58  1  0  0  0  0
 57183  1  0  0  0  0
 57184  1  0  0  0  0
 58 59  1  0  0  0  0
 58185  1  0  0  0  0
 58186  1  0  0  0  0
 59 60  1  0  0  0  0
 59187  1  0  0  0  0
 59188  1  0  0  0  0
 60 61  1  0  0  0  0
 60189  1  0  0  0  0
 60190  1  0  0  0  0
 61 62  1  0  0  0  0
 61191  1  0  0  0  0
 61192  1  0  0  0  0
 62 63  1  0  0  0  0
 62193  1  0  0  0  0
 62194  1  0  0  0  0
 63 64  1  0  0  0  0
 63195  1  0  0  0  0
 63196  1  0  0  0  0
 64 65  1  0  0  0  0
 64197  1  0  0  0  0
 64198  1  0  0  0  0
 65 66  1  0  0  0  0
 65199  1  0  0  0  0
 65200  1  0  0  0  0
 66 67  1  0  0  0  0
 66201  1  0  0  0  0
 66202  1  0  0  0  0
 67 68  1  0  0  0  0
 67203  1  0  0  0  0
 67204  1  0  0  0  0
 68 69  1  0  0  0  0
 68205  1  0  0  0  0
 68206  1  0  0  0  0
 69 70  1  0  0  0  0
 69207  1  0  0  0  0
 69208  1  0  0  0  0
 70 71  1  0  0  0  0
 70209  1  0  0  0  0
 70210  1  0  0  0  0
 71 72  1  0  0  0  0
 71211  1  0  0  0  0
 71212  1  0  0  0  0
 72 73  1  0  0  0  0
 72213  1  0  0  0  0
 72214  1  0  0  0  0
 73 74  1  0  0  0  0
 73215  1  0  0  0  0
 73216  1  0  0  0  0
 74 75  1  0  0  0  0
 74217  1  0  0  0  0
 74218  1  0  0  0  0
 75 76  1  0  0  0  0
 75219  1  0  0  0  0
 75220  1  0  0  0  0
 76 77  1  0  0  0  0
 76221  1  0  0  0  0
 76222  1  0  0  0  0
 77 78  1  0  0  0  0
 77223  1  0  0  0  0
 77224  1  0  0  0  0
 78 79  1  0  0  0  0
 78225  1  0  0  0  0
 78226  1  0  0  0  0
 79 80  1  0  0  0  0
 79227  1  0  0  0  0
 79228  1  0  0  0  0
 80 81  1  0  0  0  0
 80229  1  0  0  0  0
 80230  1  0  0  0  0
 81231  1  0  0  0  0
 81232  1  0  0  0  0
 81233  1  0  0  0  0
M  END
$$$$
