
 OpenBabel04232216473D

 78 79  0  0  0  0  0  0  0  0999 V2000
    1.0770    0.0352    0.0532 C   0  0  0  0  0  0  0  0  0  0  0  0
    2.5970    0.0352    0.0532 C   0  0  0  0  0  0  0  0  0  0  0  0
    3.3635    1.2863   -0.3062 C   0  0  0  0  0  0  0  0  0  0  0  0
    4.7433    1.3813   -0.3376 C   0  0  0  0  0  0  0  0  0  0  0  0
    5.4175    2.4614   -0.6407 N   0  0  0  0  0  0  0  0  0  0  0  0
    6.7610    2.4885   -0.6254 C   0  0  0  0  0  0  0  0  0  0  0  0
    7.0664    3.9084   -0.9931 C   0  0  0  0  0  0  0  0  0  0  0  0
    8.6173    4.2110   -0.8038 C   0  0  0  0  0  0  0  0  0  0  0  0
    9.4045    5.3159   -1.1740 C   0  0  0  0  0  0  0  0  0  0  0  0
    8.6097    5.2607   -2.1522 C   0  0  0  0  0  0  0  0  0  0  0  0
   10.3952    6.3649   -1.6979 N   0  0  0  0  0  0  0  0  0  0  0  0
   12.3137    6.0628   -0.9696 C   0  0  0  0  0  0  0  0  0  0  0  0
   12.9226    7.8457   -1.5356 C   0  0  0  0  0  0  0  0  0  0  0  0
   14.5942    7.8244   -1.1515 C   0  0  0  0  0  0  0  0  0  0  0  0
   14.4381    9.5567   -1.8141 C   0  0  0  0  0  0  0  0  0  0  0  0
   15.9572    9.8924   -1.6739 C   0  0  0  0  0  0  0  0  0  0  0  0
   16.3274   11.3381   -2.6481 C   0  0  0  0  0  0  0  0  0  0  0  0
   17.8483   11.0138   -2.1126 C   0  0  0  0  0  0  0  0  0  0  0  0
   17.7493   12.4432   -3.0065 C   0  0  0  0  0  0  0  0  0  0  0  0
   19.4262   12.4846   -2.6509 C   0  0  0  0  0  0  0  0  0  0  0  0
   19.1991   14.1149   -3.6770 C   0  0  0  0  0  0  0  0  0  0  0  0
   20.6395   14.7258   -3.2305 C   0  0  0  0  0  0  0  0  0  0  0  0
   22.5659   15.2234   -3.3207 C   0  0  0  0  0  0  0  0  0  0  0  0
   24.0490   15.5860   -3.7170 C   0  0  0  0  0  0  0  0  0  0  0  0
   23.7016   17.5413   -4.1036 C   0  0  0  0  0  0  0  0  0  0  0  0
   25.2505   17.9205   -3.9350 C   0  0  0  0  0  0  0  0  0  0  0  0
   25.7485   19.5483   -4.7785 C   0  0  0  0  0  0  0  0  0  0  0  0
   27.1720   19.5726   -4.7536 C   0  0  0  0  0  0  0  0  0  0  0  0
   25.3544   18.0948   -5.5702 C   0  0  0  0  0  0  0  0  0  0  0  0
   23.6379   16.1340   -5.3028 C   0  0  0  0  0  0  0  0  0  0  0  0
   21.3710   13.9566   -4.7522 C   0  0  0  0  0  0  0  0  0  0  0  0
   19.1317   11.7924   -4.2919 C   0  0  0  0  0  0  0  0  0  0  0  0
   16.4487    9.4071   -3.4623 C   0  0  0  0  0  0  0  0  0  0  0  0
   13.9288    7.1506   -2.7048 C   0  0  0  0  0  0  0  0  0  0  0  0
   10.8257    4.5633   -1.7311 C   0  0  0  0  0  0  0  0  0  0  0  0
    8.2902    2.6343   -0.8677 N   0  0  0  0  0  0  0  0  0  0  0  0
    5.4774    0.0352    0.0532 C   0  0  0  0  0  0  0  0  0  0  0  0
    0.7151   -0.2164    1.0420 H   0  0  0  0  0  0  0  0  0  0  0  0
    0.7152   -0.6985   -0.6560 H   0  0  0  0  0  0  0  0  0  0  0  0
    0.7111    1.0140   -0.2312 H   0  0  0  0  0  0  0  0  0  0  0  0
    2.8187    2.1856   -0.5620 H   0  0  0  0  0  0  0  0  0  0  0  0
    4.9624    3.3439   -0.8936 H   0  0  0  0  0  0  0  0  0  0  0  0
    7.2233    1.7583   -1.3816 H   0  0  0  0  0  0  0  0  0  0  0  0
    7.2614    2.2677    0.3475 H   0  0  0  0  0  0  0  0  0  0  0  0
    6.9853    4.6544   -0.3064 H   0  0  0  0  0  0  0  0  0  0  0  0
    6.8860    4.1487   -2.0499 H   0  0  0  0  0  0  0  0  0  0  0  0
    9.2117    3.1027   -1.9962 H   0  0  0  0  0  0  0  0  0  0  0  0
    9.1604    3.7106    0.2561 H   0  0  0  0  0  0  0  0  0  0  0  0
    9.0375    6.0789   -0.6323 H   0  0  0  0  0  0  0  0  0  0  0  0
    9.1538    5.5628   -2.4785 H   0  0  0  0  0  0  0  0  0  0  0  0
    8.4462    3.8294   -2.7682 H   0  0  0  0  0  0  0  0  0  0  0  0
    8.4125    4.0849   -2.2787 H   0  0  0  0  0  0  0  0  0  0  0  0
   10.9165    7.2508   -1.1988 H   0  0  0  0  0  0  0  0  0  0  0  0
   13.2448    5.3430   -2.1301 H   0  0  0  0  0  0  0  0  0  0  0  0
   13.3402    6.3482   -0.6734 H   0  0  0  0  0  0  0  0  0  0  0  0
   12.6480    8.7152   -2.4604 H   0  0  0  0  0  0  0  0  0  0  0  0
   15.6182    7.3483   -1.9703 H   0  0  0  0  0  0  0  0  0  0  0  0
   14.4971   10.3014   -2.8556 H   0  0  0  0  0  0  0  0  0  0  0  0
   17.1486    9.0523   -2.2253 H   0  0  0  0  0  0  0  0  0  0  0  0
   15.9044   12.3112   -3.4516 H   0  0  0  0  0  0  0  0  0  0  0  0
   18.8766    9.8161   -2.1717 H   0  0  0  0  0  0  0  0  0  0  0  0
   16.7687   13.4586   -3.6937 H   0  0  0  0  0  0  0  0  0  0  0  0
   20.8152   11.6863   -3.0511 H   0  0  0  0  0  0  0  0  0  0  0  0
   19.8672   15.1314   -4.3119 H   0  0  0  0  0  0  0  0  0  0  0  0
   21.3119   13.5498   -3.0651 H   0  0  0  0  0  0  0  0  0  0  0  0
   23.7401   14.4117   -3.8773 H   0  0  0  0  0  0  0  0  0  0  0  0
   25.0401   15.5692   -4.2866 H   0  0  0  0  0  0  0  0  0  0  0  0
   24.1514   18.5376   -5.2014 H   0  0  0  0  0  0  0  0  0  0  0  0
   26.4425   17.1017   -4.5356 H   0  0  0  0  0  0  0  0  0  0  0  0
   25.5231   20.1691   -5.7422 H   0  0  0  0  0  0  0  0  0  0  0  0
   28.3590   18.6604   -4.9625 H   0  0  0  0  0  0  0  0  0  0  0  0
   26.5479   20.0938   -5.9554 H   0  0  0  0  0  0  0  0  0  0  0  0
   25.5636   17.4650   -5.5679 H   0  0  0  0  0  0  0  0  0  0  0  0
   23.0353   15.3682   -5.1934 H   0  0  0  0  0  0  0  0  0  0  0  0
   20.7625   13.2479   -4.5784 H   0  0  0  0  0  0  0  0  0  0  0  0
   18.0383   10.8479   -3.8724 H   0  0  0  0  0  0  0  0  0  0  0  0
   15.4879    8.6567   -3.0837 H   0  0  0  0  0  0  0  0  0  0  0  0
   12.2967    6.0789   -2.3677 H   0  0  0  0  0  0  0  0  0  0  0  0
  1  2  1  0  0  0  0
  1 38  1  0  0  0  0
  1 39  1  0  0  0  0
  1 40  1  0  0  0  0
  2  3  1  0  0  0  0
  2 37  2  0  0  0  0
  3  4  2  0  0  0  0
  3 41  1  0  0  0  0
  4  5  1  0  0  0  0
  4 37  1  0  0  0  0
  5  6  1  0  0  0  0
  5 42  1  0  0  0  0
  6  7  1  0  0  0  0
  6 43  1  0  0  0  0
  6 44  1  0  0  0  0
  7  8  1  0  0  0  0
  7 45  1  0  0  0  0
  7 46  1  0  0  0  0
  8  9  1  0  0  0  0
  8 47  1  0  0  0  0
  8 48  1  0  0  0  0
  9 10  1  0  0  0  0
  9 49  1  0  0  0  0
  9 50  1  0  0  0  0
 10 11  1  0  0  0  0
 10 51  1  0  0  0  0
 10 52  1  0  0  0  0
 11 12  1  0  0  0  0
 11 53  1  0  0  0  0
 12 13  1  0  0  0  0
 12 54  1  0  0  0  0
 12 55  1  0  0  0  0
 13 14  2  3  0  0  0
 13 56  1  0  0  0  0
 14 15  1  0  0  0  0
 14 57  1  0  0  0  0
 15 16  2  3  0  0  0
 15 58  1  0  0  0  0
 16 17  1  0  0  0  0
 16 59  1  0  0  0  0
 17 18  2  3  0  0  0
 17 60  1  0  0  0  0
 18 19  1  0  0  0  0
 18 61  1  0  0  0  0
 19 20  2  3  0  0  0
 19 62  1  0  0  0  0
 20 21  1  0  0  0  0
 20 63  1  0  0  0  0
 21 22  2  3  0  0  0
 21 64  1  0  0  0  0
 22 23  1  0  0  0  0
 22 65  1  0  0  0  0
 23 24  2  3  0  0  0
 23 66  1  0  0  0  0
 24 25  1  0  0  0  0
 24 67  1  0  0  0  0
 25 26  2  3  0  0  0
 25 68  1  0  0  0  0
 26 27  1  0  0  0  0
 26 69  1  0  0  0  0
 27 28  2  3  0  0  0
 27 70  1  0  0  0  0
 28 29  1  0  0  0  0
 28 71  1  0  0  0  0
 29 30  2  3  0  0  0
 29 72  1  0  0  0  0
 30 31  1  0  0  0  0
 30 73  1  0  0  0  0
 31 32  2  3  0  0  0
 31 74  1  0  0  0  0
 32 33  1  0  0  0  0
 32 75  1  0  0  0  0
 33 34  2  3  0  0  0
 33 76  1  0  0  0  0
 34 35  1  0  0  0  0
 34 77  1  0  0  0  0
 35 36  2  3  0  0  0
 35 78  1  0  0  0  0
 36 37  1  0  0  0  0
M  END
$$$$
