
 OpenBabel04232217003D

 49 50  0  0  1  0  0  0  0  0999 V2000
    4.3101   -4.9160   -1.2353 O   0  0  0  0  0  0  0  0  0  0  0  0
    5.5288   -4.3016   -1.1554 C   0  0  0  0  0  0  0  0  0  0  0  0
    5.1686   -2.7939   -1.1087 C   0  0  0  0  0  0  0  0  0  0  0  0
    5.2643   -1.8990   -0.0580 C   0  0  0  0  0  0  0  0  0  0  0  0
    5.8527   -2.0004    1.3466 C   0  0  0  0  0  0  0  0  0  0  0  0
    5.9692   -0.4167   -0.1579 C   0  0  3  0  0  0  0  0  0  0  0  0
    5.9725    0.8557    0.7495 C   0  0  0  0  0  0  0  0  0  0  0  0
    4.6957    1.6402    0.9381 C   0  0  0  0  0  0  0  0  0  0  0  0
    7.0084   -1.3657    0.5451 C   0  0  0  0  0  0  0  0  0  0  0  0
    8.2676   -1.6583    0.2238 C   0  0  0  0  0  0  0  0  0  0  0  0
    9.0147   -2.8112    0.6196 C   0  0  0  0  0  0  0  0  0  0  0  0
    8.4434   -3.9177    1.5035 C   0  0  0  0  0  0  0  0  0  0  0  0
    8.8352   -3.7043    2.9581 C   0  0  0  0  0  0  0  0  0  0  0  0
    8.3926   -4.8006    3.9193 C   0  0  0  0  0  0  0  0  0  0  0  0
    8.9507   -6.1825    3.6105 C   0  0  0  0  0  0  0  0  0  0  0  0
   10.2699   -2.9498    0.0693 C   0  0  0  0  0  0  0  0  0  0  0  0
   11.0610   -3.9934    0.3928 N   0  0  0  0  0  0  0  0  0  0  0  0
   11.8200   -4.3895   -0.5150 N   0  0  0  0  0  0  0  0  0  0  0  0
   11.6764   -5.7487   -0.6379 C   0  0  0  0  0  0  0  0  0  0  0  0
   11.3458   -6.2746   -1.8330 C   0  0  0  0  0  0  0  0  0  0  0  0
   10.2013   -7.1659   -1.6390 C   0  0  0  0  0  0  0  0  0  0  0  0
    8.9385   -6.8286   -1.6160 N   0  0  0  0  0  0  0  0  0  0  0  0
    8.6419   -5.4904   -2.0438 N   0  0  0  0  0  0  0  0  0  0  0  0
    7.8544   -4.7550   -1.3518 N   0  0  0  0  0  0  0  0  0  0  0  0
    6.5131   -5.1390   -1.2840 N   0  0  0  0  0  0  0  0  0  0  0  0
    3.5571   -4.3190   -1.1570 H   0  0  0  0  0  0  0  0  0  0  0  0
    4.6668   -2.4318   -2.0001 H   0  0  0  0  0  0  0  0  0  0  0  0
    5.8974   -2.9826    1.7924 H   0  0  0  0  0  0  0  0  0  0  0  0
    5.3801   -1.3573    2.1154 H   0  0  0  0  0  0  0  0  0  0  0  0
    6.1841   -0.1109   -1.1926 H   0  0  0  0  0  0  0  0  0  0  0  0
    6.7110    1.5537    0.3179 H   0  0  0  0  0  0  0  0  0  0  0  0
    6.3733    0.6505    1.7529 H   0  0  0  0  0  0  0  0  0  0  0  0
    4.3120    2.0417   -0.0018 H   0  0  0  0  0  0  0  0  0  0  0  0
    4.9072    2.5021    1.5916 H   0  0  0  0  0  0  0  0  0  0  0  0
    3.9261    1.0460    1.4335 H   0  0  0  0  0  0  0  0  0  0  0  0
    8.6953   -1.0217   -0.5629 H   0  0  0  0  0  0  0  0  0  0  0  0
    8.8000   -4.8945    1.1566 H   0  0  0  0  0  0  0  0  0  0  0  0
    7.3646   -4.0356    1.3898 H   0  0  0  0  0  0  0  0  0  0  0  0
    8.4284   -2.7474    3.3055 H   0  0  0  0  0  0  0  0  0  0  0  0
    9.9271   -3.6195    3.0091 H   0  0  0  0  0  0  0  0  0  0  0  0
    7.2972   -4.8510    3.9687 H   0  0  0  0  0  0  0  0  0  0  0  0
    8.7425   -4.5140    4.9167 H   0  0  0  0  0  0  0  0  0  0  0  0
    8.5279   -6.5966    2.6907 H   0  0  0  0  0  0  0  0  0  0  0  0
    8.7014   -6.8732    4.4229 H   0  0  0  0  0  0  0  0  0  0  0  0
   10.0411   -6.1595    3.5134 H   0  0  0  0  0  0  0  0  0  0  0  0
   10.5971   -2.2628   -0.6839 H   0  0  0  0  0  0  0  0  0  0  0  0
   11.4287   -6.2742    0.2860 H   0  0  0  0  0  0  0  0  0  0  0  0
   11.4890   -5.7528   -2.7602 H   0  0  0  0  0  0  0  0  0  0  0  0
   10.4708   -8.2136   -1.4106 H   0  0  0  0  0  0  0  0  0  0  0  0
  1  2  1  0  0  0  0
  1 26  1  0  0  0  0
  2  3  1  0  0  0  0
  2 25  2  3  0  0  0
  3  4  2  3  0  0  0
  3 27  1  0  0  0  0
  4  5  1  0  0  0  0
  4  6  1  0  0  0  0
  5  9  1  0  0  0  0
  5 28  1  0  0  0  0
  5 29  1  0  0  0  0
  6  7  1  0  0  0  0
  6  9  1  0  0  0  0
  6 30  1  0  0  0  0
  7  8  1  0  0  0  0
  7 31  1  0  0  0  0
  7 32  1  0  0  0  0
  8 33  1  0  0  0  0
  8 34  1  0  0  0  0
  8 35  1  0  0  0  0
  9 10  2  3  0  0  0
 10 11  1  0  0  0  0
 10 36  1  0  0  0  0
 11 12  1  0  0  0  0
 11 16  2  3  0  0  0
 12 13  1  0  0  0  0
 12 37  1  0  0  0  0
 12 38  1  0  0  0  0
 13 14  1  0  0  0  0
 13 39  1  0  0  0  0
 13 40  1  0  0  0  0
 14 15  1  0  0  0  0
 14 41  1  0  0  0  0
 14 42  1  0  0  0  0
 15 43  1  0  0  0  0
 15 44  1  0  0  0  0
 15 45  1  0  0  0  0
 16 17  1  0  0  0  0
 16 46  1  0  0  0  0
 17 18  2  3  0  0  0
 18 19  1  0  0  0  0
 19 20  2  3  0  0  0
 19 47  1  0  0  0  0
 20 21  1  0  0  0  0
 20 48  1  0  0  0  0
 21 22  2  3  0  0  0
 21 49  1  0  0  0  0
 22 23  1  0  0  0  0
 23 24  2  3  0  0  0
 24 25  1  0  0  0  0
M  END
$$$$
