
 OpenBabel04232216513D

 48 49  0  0  0  0  0  0  0  0999 V2000
    2.5819    1.5848    2.9239 C   0  0  0  0  0  0  0  0  0  0  0  0
    3.6049    1.4244    1.8180 C   0  0  0  0  0  0  0  0  0  0  0  0
    4.6731    0.2954    1.8261 C   0  0  0  0  0  0  0  0  0  0  0  0
    5.4342   -0.3750    3.0273 C   0  0  0  0  0  0  0  0  0  0  0  0
    5.1443   -1.7131    3.0386 C   0  0  0  0  0  0  0  0  0  0  0  0
    4.0229   -2.3078    3.8486 C   0  0  0  0  0  0  0  0  0  0  0  0
    2.7116   -2.5936    3.1138 C   0  0  0  0  0  0  0  0  0  0  0  0
    2.7978   -3.6137    1.9894 C   0  0  0  0  0  0  0  0  0  0  0  0
    5.9121   -2.6256    2.0777 C   0  0  0  0  0  0  0  0  0  0  0  0
    6.7930   -3.6333    2.7843 C   0  0  0  0  0  0  0  0  0  0  0  0
    8.2193   -3.2959    2.4517 C   0  0  0  0  0  0  0  0  0  0  0  0
    8.7105   -3.5341    1.3637 O   0  0  0  0  0  0  0  0  0  0  0  0
    9.0665   -2.6968    3.5261 C   0  0  0  0  0  0  0  0  0  0  0  0
    9.0702   -1.3484    3.6613 C   0  0  0  0  0  0  0  0  0  0  0  0
    7.7692   -0.7177    4.0177 C   0  0  0  0  0  0  0  0  0  0  0  0
    7.4499   -0.8040    5.3830 N   0  0  0  0  0  0  0  0  0  0  0  0
    7.8627   -1.8745    6.2949 C   0  0  0  0  0  0  0  0  0  0  0  0
    9.2797   -1.9911    6.3702 O   0  0  0  0  0  0  0  0  0  0  0  0
    9.7964   -3.2650    5.9889 C   0  0  0  0  0  0  0  0  0  0  0  0
    9.4594   -3.7263    4.5617 C   0  0  0  0  0  0  0  0  0  0  0  0
    6.9522   -0.1966    3.0503 C   0  0  0  0  0  0  0  0  0  0  0  0
    1.9273    2.4471    2.6648 H   0  0  0  0  0  0  0  0  0  0  0  0
    3.0325    1.8088    3.8805 H   0  0  0  0  0  0  0  0  0  0  0  0
    1.9104    0.7244    3.0102 H   0  0  0  0  0  0  0  0  0  0  0  0
    4.1008    2.3850    1.6534 H   0  0  0  0  0  0  0  0  0  0  0  0
    3.0162    1.2595    0.8972 H   0  0  0  0  0  0  0  0  0  0  0  0
    5.4259    0.6095    1.0916 H   0  0  0  0  0  0  0  0  0  0  0  0
    4.1483   -0.5224    1.3060 H   0  0  0  0  0  0  0  0  0  0  0  0
    3.7999   -1.6320    4.6862 H   0  0  0  0  0  0  0  0  0  0  0  0
    4.3821   -3.2314    4.3211 H   0  0  0  0  0  0  0  0  0  0  0  0
    2.2944   -1.6620    2.7186 H   0  0  0  0  0  0  0  0  0  0  0  0
    1.9962   -2.9722    3.8515 H   0  0  0  0  0  0  0  0  0  0  0  0
    3.2989   -3.1954    1.1094 H   0  0  0  0  0  0  0  0  0  0  0  0
    1.8017   -3.8993    1.6577 H   0  0  0  0  0  0  0  0  0  0  0  0
    3.3283   -4.5190    2.3091 H   0  0  0  0  0  0  0  0  0  0  0  0
    6.5061   -2.0204    1.3770 H   0  0  0  0  0  0  0  0  0  0  0  0
    5.2384   -3.1457    1.4060 H   0  0  0  0  0  0  0  0  0  0  0  0
    6.5897   -4.6490    2.4165 H   0  0  0  0  0  0  0  0  0  0  0  0
    6.6355   -3.6550    3.8635 H   0  0  0  0  0  0  0  0  0  0  0  0
    9.8380   -0.9235    4.3115 H   0  0  0  0  0  0  0  0  0  0  0  0
    7.8103    0.0575    5.8037 H   0  0  0  0  0  0  0  0  0  0  0  0
    7.3695   -2.8193    6.0435 H   0  0  0  0  0  0  0  0  0  0  0  0
    7.5303   -1.6052    7.3037 H   0  0  0  0  0  0  0  0  0  0  0  0
    9.4549   -4.0180    6.7116 H   0  0  0  0  0  0  0  0  0  0  0  0
   10.8904   -3.2262    6.0930 H   0  0  0  0  0  0  0  0  0  0  0  0
    8.6060   -4.4124    4.6864 H   0  0  0  0  0  0  0  0  0  0  0  0
   10.2578   -4.3749    4.1786 H   0  0  0  0  0  0  0  0  0  0  0  0
    7.3714   -0.0216    2.0562 H   0  0  0  0  0  0  0  0  0  0  0  0
  1  2  1  0  0  0  0
  1 22  1  0  0  0  0
  1 23  1  0  0  0  0
  1 24  1  0  0  0  0
  2  3  1  0  0  0  0
  2 25  1  0  0  0  0
  2 26  1  0  0  0  0
  3  4  1  0  0  0  0
  3 27  1  0  0  0  0
  3 28  1  0  0  0  0
  4  5  2  3  0  0  0
  4 21  1  0  0  0  0
  5  6  1  0  0  0  0
  5  9  1  0  0  0  0
  6  7  1  0  0  0  0
  6 29  1  0  0  0  0
  6 30  1  0  0  0  0
  7  8  1  0  0  0  0
  7 31  1  0  0  0  0
  7 32  1  0  0  0  0
  8 33  1  0  0  0  0
  8 34  1  0  0  0  0
  8 35  1  0  0  0  0
  9 10  1  0  0  0  0
  9 36  1  0  0  0  0
  9 37  1  0  0  0  0
 10 11  1  0  0  0  0
 10 38  1  0  0  0  0
 10 39  1  0  0  0  0
 11 12  2  0  0  0  0
 11 13  1  0  0  0  0
 13 14  2  0  0  0  0
 13 20  1  0  0  0  0
 14 15  1  0  0  0  0
 14 40  1  0  0  0  0
 15 16  1  0  0  0  0
 15 21  2  3  0  0  0
 16 17  1  0  0  0  0
 16 41  1  0  0  0  0
 17 18  1  0  0  0  0
 17 42  1  0  0  0  0
 17 43  1  0  0  0  0
 18 19  1  0  0  0  0
 19 20  1  0  0  0  0
 19 44  1  0  0  0  0
 19 45  1  0  0  0  0
 20 46  1  0  0  0  0
 20 47  1  0  0  0  0
 21 48  1  0  0  0  0
M  END
$$$$
