
 OpenBabel04232216493D

 58 59  0  0  1  0  0  0  0  0999 V2000
    1.0722   -0.3055   -1.1884 C   0  0  0  0  0  0  0  0  0  0  0  0
    2.5037   -0.3150   -0.6495 C   0  0  3  0  0  0  0  0  0  0  0  0
    3.3291   -1.4437   -1.1825 C   0  0  0  0  0  3  0  0  0  0  0  0
    3.8824   -2.4259   -0.1931 C   0  0  0  0  0  0  0  0  0  0  0  0
    5.3503   -2.7896   -0.4418 C   0  0  0  0  0  0  0  0  0  0  0  0
    6.3013   -2.2747    0.6564 C   0  0  0  0  0  0  0  0  0  0  0  0
    7.3705   -1.3117    0.1213 C   0  0  0  0  0  0  0  0  0  0  0  0
    7.5583   -0.0465    0.9753 C   0  0  0  0  0  0  0  0  0  0  0  0
    7.4188    1.2472    0.1587 C   0  0  0  0  0  0  0  0  0  0  0  0
    6.3993    2.2590    0.7096 C   0  0  0  0  0  0  0  0  0  0  0  0
    5.1457    2.4067   -0.1593 C   0  0  0  0  0  0  0  0  0  0  0  0
    3.7947    1.7976    0.2919 C   0  0  3  0  0  0  0  0  0  0  0  0
    3.7604    1.1081    1.7010 C   0  0  0  0  0  0  0  0  0  0  0  0
    4.5103    0.1718    1.9788 O   0  0  0  0  0  0  0  0  0  0  0  0
    2.6728    1.4826    2.7058 C   0  0  0  0  0  0  0  0  0  0  0  0
    2.7370    1.1505    4.0348 C   0  0  0  0  0  0  0  0  0  0  0  0
    3.9257    0.5422    4.7648 C   0  0  0  0  0  0  0  0  0  0  0  0
    5.1966    1.3670    4.7875 C   0  0  0  0  0  0  0  0  0  0  0  0
    5.3078    2.5129    4.3745 O   0  0  0  0  0  0  0  0  0  0  0  0
    1.5249    1.3163    4.9330 C   0  0  0  0  0  0  0  0  0  0  0  0
    0.2010    1.4313    4.1810 C   0  0  0  0  0  0  0  0  0  0  0  0
    0.3207    2.4746    3.0929 C   0  0  0  0  0  0  0  0  0  0  0  0
    1.4331    2.1137    2.1150 C   0  0  0  0  0  0  0  0  0  0  0  0
    3.2236    0.9768   -0.8573 C   0  0  0  0  0  3  0  0  0  0  0  0
    0.5053   -1.1160   -0.7123 H   0  0  0  0  0  0  0  0  0  0  0  0
    1.0017   -0.4455   -2.2719 H   0  0  0  0  0  0  0  0  0  0  0  0
    0.5632    0.6304   -0.9299 H   0  0  0  0  0  0  0  0  0  0  0  0
    2.3805   -0.4665    0.4195 H   0  0  0  0  0  0  0  0  0  0  0  0
    3.4859   -1.5888   -2.2466 H   0  0  0  0  0  0  0  0  0  0  0  0
    3.2663   -3.3298   -0.2511 H   0  0  0  0  0  0  0  0  0  0  0  0
    3.7488   -2.0447    0.8232 H   0  0  0  0  0  0  0  0  0  0  0  0
    5.6736   -2.4671   -1.4380 H   0  0  0  0  0  0  0  0  0  0  0  0
    5.4172   -3.8846   -0.4479 H   0  0  0  0  0  0  0  0  0  0  0  0
    6.8184   -3.1429    1.0873 H   0  0  0  0  0  0  0  0  0  0  0  0
    5.7492   -1.8415    1.4924 H   0  0  0  0  0  0  0  0  0  0  0  0
    7.1701   -1.0498   -0.9211 H   0  0  0  0  0  0  0  0  0  0  0  0
    8.3256   -1.8540    0.1074 H   0  0  0  0  0  0  0  0  0  0  0  0
    8.5802   -0.0705    1.3784 H   0  0  0  0  0  0  0  0  0  0  0  0
    6.9131   -0.0400    1.8562 H   0  0  0  0  0  0  0  0  0  0  0  0
    7.2249    1.0408   -0.8995 H   0  0  0  0  0  0  0  0  0  0  0  0
    8.4009    1.7388    0.1722 H   0  0  0  0  0  0  0  0  0  0  0  0
    6.9007    3.2368    0.6712 H   0  0  0  0  0  0  0  0  0  0  0  0
    6.1746    2.1042    1.7664 H   0  0  0  0  0  0  0  0  0  0  0  0
    5.3817    2.1088   -1.1900 H   0  0  0  0  0  0  0  0  0  0  0  0
    4.9619    3.4889   -0.2488 H   0  0  0  0  0  0  0  0  0  0  0  0
    3.1279    2.6610    0.3404 H   0  0  0  0  0  0  0  0  0  0  0  0
    4.1489   -0.4556    4.3936 H   0  0  0  0  0  0  0  0  0  0  0  0
    3.6715    0.4219    5.8297 H   0  0  0  0  0  0  0  0  0  0  0  0
    6.0512    0.8739    5.2924 H   0  0  0  0  0  0  0  0  0  0  0  0
    1.6755    2.2010    5.5669 H   0  0  0  0  0  0  0  0  0  0  0  0
    1.4371    0.4499    5.6033 H   0  0  0  0  0  0  0  0  0  0  0  0
   -0.6039    1.6998    4.8761 H   0  0  0  0  0  0  0  0  0  0  0  0
   -0.0657    0.4631    3.7385 H   0  0  0  0  0  0  0  0  0  0  0  0
    0.5230    3.4560    3.5398 H   0  0  0  0  0  0  0  0  0  0  0  0
   -0.6233    2.5656    2.5421 H   0  0  0  0  0  0  0  0  0  0  0  0
    1.6939    3.0474    1.6122 H   0  0  0  0  0  0  0  0  0  0  0  0
    1.0239    1.4237    1.3712 H   0  0  0  0  0  0  0  0  0  0  0  0
    3.3084    1.3705   -1.8684 H   0  0  0  0  0  0  0  0  0  0  0  0
  1  2  1  0  0  0  0
  1 25  1  0  0  0  0
  1 26  1  0  0  0  0
  1 27  1  0  0  0  0
  2  3  1  0  0  0  0
  2 24  1  0  0  0  0
  2 28  1  0  0  0  0
  3  4  1  0  0  0  0
  3 29  1  0  0  0  0
  4  5  1  0  0  0  0
  4 30  1  0  0  0  0
  4 31  1  0  0  0  0
  5  6  1  0  0  0  0
  5 32  1  0  0  0  0
  5 33  1  0  0  0  0
  6  7  1  0  0  0  0
  6 34  1  0  0  0  0
  6 35  1  0  0  0  0
  7  8  1  0  0  0  0
  7 36  1  0  0  0  0
  7 37  1  0  0  0  0
  8  9  1  0  0  0  0
  8 38  1  0  0  0  0
  8 39  1  0  0  0  0
  9 10  1  0  0  0  0
  9 40  1  0  0  0  0
  9 41  1  0  0  0  0
 10 11  1  0  0  0  0
 10 42  1  0  0  0  0
 10 43  1  0  0  0  0
 11 12  1  0  0  0  0
 11 44  1  0  0  0  0
 11 45  1  0  0  0  0
 12 13  1  0  0  0  0
 12 24  1  0  0  0  0
 12 46  1  0  0  0  0
 13 14  2  0  0  0  0
 13 15  1  0  0  0  0
 15 16  2  0  0  0  0
 15 23  1  0  0  0  0
 16 17  1  0  0  0  0
 16 20  1  0  0  0  0
 17 18  1  0  0  0  0
 17 47  1  0  0  0  0
 17 48  1  0  0  0  0
 18 19  2  0  0  0  0
 18 49  1  0  0  0  0
 20 21  1  0  0  0  0
 20 50  1  0  0  0  0
 20 51  1  0  0  0  0
 21 22  1  0  0  0  0
 21 52  1  0  0  0  0
 21 53  1  0  0  0  0
 22 23  1  0  0  0  0
 22 54  1  0  0  0  0
 22 55  1  0  0  0  0
 23 56  1  0  0  0  0
 23 57  1  0  0  0  0
 24 58  1  0  0  0  0
M  END
$$$$
