
 OpenBabel04232217003D

 87 87  0  0  1  0  0  0  0  0999 V2000
   -0.7053   -0.7737    0.7549 O   0  0  0  0  0  0  0  0  0  0  0  0
   -0.9261   -2.0026    0.1020 C   0  0  0  0  0  0  0  0  0  0  0  0
   -1.1701   -1.7645   -1.3814 C   0  0  3  0  0  0  0  0  0  0  0  0
   -2.2767   -0.8490   -1.8159 C   0  0  0  0  0  0  0  0  0  0  0  0
   -0.8390   -0.4356   -2.0226 C   0  0  3  0  0  0  0  0  0  0  0  0
   -0.3638   -0.5107   -3.3696 O   0  0  0  0  0  0  0  0  0  0  0  0
    1.0466   -0.1977   -3.2486 O   0  0  0  0  0  0  0  0  0  0  0  0
    1.7099   -0.2441   -4.5295 O   0  0  0  0  0  0  0  0  0  0  0  0
    1.2177    0.7999   -5.4049 O   0  0  0  0  0  0  0  0  0  0  0  0
    1.0521    0.2602   -6.7341 O   0  0  0  0  0  0  0  0  0  0  0  0
    0.2391    1.1245   -7.5561 O   0  0  0  0  0  0  0  0  0  0  0  0
    0.9819    1.4867   -8.7400 O   0  0  0  0  0  0  0  0  0  0  0  0
    0.3075    2.5209   -9.4883 O   0  0  0  0  0  0  0  0  0  0  0  0
    0.2896    2.1521  -10.8828 O   0  0  0  0  0  0  0  0  0  0  0  0
   -0.7197    2.8825  -11.6083 O   0  0  0  0  0  0  0  0  0  0  0  0
   -0.1156    3.4773  -12.7761 O   0  0  0  0  0  0  0  0  0  0  0  0
   -0.8591    4.6279  -13.2141 O   0  0  0  0  0  0  0  0  0  0  0  0
   -1.3891    4.3843  -14.5344 O   0  0  0  0  0  0  0  0  0  0  0  0
   -2.4228    5.3367  -14.8276 O   0  0  0  0  0  0  0  0  0  0  0  0
   -2.0003    6.2405  -15.8683 O   0  0  0  0  0  0  0  0  0  0  0  0
   -3.1689    6.7909  -16.5050 O   0  0  0  0  0  0  0  0  0  0  0  0
   -3.0943    6.6293  -17.9289 O   0  0  0  0  0  0  0  0  0  0  0  0
   -3.2577    7.9092  -18.5703 O   0  0  0  0  0  0  0  0  0  0  0  0
   -3.4177    7.7114  -19.9853 O   0  0  0  0  0  0  0  0  0  0  0  0
   -4.3654    8.6484  -20.5219 O   0  0  0  0  0  0  0  0  0  0  0  0
   -3.7199    9.4611  -21.5235 O   0  0  0  0  0  0  0  0  0  0  0  0
   -4.7045   10.2289  -22.2358 O   0  0  0  0  0  0  0  0  0  0  0  0
   -5.0689    9.5635  -23.4634 O   0  0  0  0  0  0  0  0  0  0  0  0
   -5.7983   10.4764  -24.3051 O   0  0  0  0  0  0  0  0  0  0  0  0
   -4.8750   11.3555  -24.9844 O   0  0  0  0  0  0  0  0  0  0  0  0
   -5.5977   12.3373  -25.7427 O   0  0  0  0  0  0  0  0  0  0  0  0
   -6.0964   11.7343  -26.9553 O   0  0  0  0  0  0  0  0  0  0  0  0
   -7.1169   12.5636  -27.5027 O   0  0  0  0  0  0  0  0  0  0  0  0
   -6.5772   13.3915  -28.5386 O   0  0  0  0  0  0  0  0  0  0  0  0
   -7.6776   13.9070  -29.2796 O   0  0  0  0  0  0  0  0  0  0  0  0
   -7.4148   13.8588  -30.6721 O   0  0  0  0  0  0  0  0  0  0  0  0
   -7.4922   15.1920  -31.1777 O   0  0  0  0  0  0  0  0  0  0  0  0
   -7.4018   15.1411  -32.5892 O   0  0  0  0  0  0  0  0  0  0  0  0
   -8.6393   15.5323  -33.1726 O   0  0  0  0  0  0  0  0  0  0  0  0
   -8.3259   16.2523  -34.3564 O   0  0  0  0  0  0  0  0  0  0  0  0
   -9.4450   17.0258  -34.7433 O   0  0  0  0  0  0  0  0  0  0  0  0
   -9.5139   17.0400  -36.1575 O   0  0  0  0  0  0  0  0  0  0  0  0
   -9.6719   18.3861  -36.5868 O   0  0  0  0  0  0  0  0  0  0  0  0
   -9.4452   18.4147  -37.9764 O   0  0  0  0  0  0  0  0  0  0  0  0
  -10.6178   18.8106  -38.6778 O   0  0  0  0  0  0  0  0  0  0  0  0
  -10.1438   19.2509  -39.9411 O   0  0  0  0  0  0  0  0  0  0  0  0
  -10.9275   20.3060  -40.4636 O   0  0  0  0  0  0  0  0  0  0  0  0
  -11.2842   19.9195  -41.7924 O   0  0  0  0  0  0  0  0  0  0  0  0
  -12.0302   20.9572  -42.4154 O   0  0  0  0  0  0  0  0  0  0  0  0
  -11.1757   21.6966  -43.2987 O   0  0  0  0  0  0  0  0  0  0  0  0
  -11.9844   22.5656  -44.1000 O   0  0  0  0  0  0  0  0  0  0  0  0
  -12.5194   21.8405  -45.2264 O   0  0  0  0  0  0  0  0  0  0  0  0
  -13.3176   22.7284  -46.0282 O   0  0  0  0  0  0  0  0  0  0  0  0
  -12.4562   23.6252  -46.7655 O   0  0  0  0  0  0  0  0  0  0  0  0
  -13.2497   24.5704  -47.5075 O   0  0  0  0  0  0  0  0  0  0  0  0
  -13.7033   23.9654  -48.7393 O   0  0  0  0  0  0  0  0  0  0  0  0
  -14.5220   24.8942  -49.4782 O   0  0  0  0  0  0  0  0  0  0  0  0
  -13.7102   25.6236  -50.4267 O   0  0  0  0  0  0  0  0  0  0  0  0
  -14.5291   26.5433  -51.1815 O   0  0  0  0  0  0  0  0  0  0  0  0
  -14.9029   25.9553  -52.4496 O   0  0  0  0  0  0  0  0  0  0  0  0
  -15.7188   26.8768  -53.2092 O   0  0  0  0  0  0  0  0  0  0  0  0
  -14.9028   27.6024  -54.1596 O   0  0  0  0  0  0  0  0  0  0  0  0
  -15.7034   28.5704  -54.8783 O   0  0  0  0  0  0  0  0  0  0  0  0
  -16.0589   28.0555  -56.1844 O   0  0  0  0  0  0  0  0  0  0  0  0
  -16.9438   28.9745  -56.8689 O   0  0  0  0  0  0  0  0  0  0  0  0
  -16.2157   29.7129  -57.8805 O   0  0  0  0  0  0  0  0  0  0  0  0
  -17.0866   30.6617  -58.5436 O   0  0  0  0  0  0  0  0  0  0  0  0
  -17.3703   30.2263  -59.8962 O   0  0  0  0  0  0  0  0  0  0  0  0
  -18.2477   31.1688  -60.5613 O   0  0  0  0  0  0  0  0  0  0  0  0
  -17.5680   31.7911  -61.6801 O   0  0  0  0  0  0  0  0  0  0  0  0
  -18.4360   32.7512  -62.3339 O   0  0  0  0  0  0  0  0  0  0  0  0
  -18.6516   32.3805  -63.7189 O   0  0  0  0  0  0  0  0  0  0  0  0
  -19.5227   33.3376  -64.3737 O   0  0  0  0  0  0  0  0  0  0  0  0
  -18.8670   33.9153  -65.5316 O   0  0  0  0  0  0  0  0  0  0  0  0
  -19.6824   34.9690  -66.1020 O   0  0  0  0  0  0  0  0  0  0  0  0
  -20.1714   34.5930  -67.4155 O   0  0  0  0  0  0  0  0  0  0  0  0
  -20.8158   35.7299  -68.0468 O   0  0  0  0  0  0  0  0  0  0  0  0
  -20.4075   35.8599  -69.4317 O   0  0  0  0  0  0  0  0  0  0  0  0
  -19.0933   36.4625  -69.5294 O   0  0  0  0  0  0  0  0  0  0  0  0
   -0.4990   -0.9435    1.6902 H   0  0  0  0  0  0  0  0  0  0  0  0
   -1.8089   -2.4756    0.5246 H   0  0  0  0  0  0  0  0  0  0  0  0
   -0.0712   -2.6544    0.2053 H   0  0  0  0  0  0  0  0  0  0  0  0
   -1.0080   -2.6703   -1.9548 H   0  0  0  0  0  0  0  0  0  0  0  0
   -2.8208   -0.3074   -1.0430 H   0  0  0  0  0  0  0  0  0  0  0  0
   -2.8608   -1.1306   -2.6777 H   0  0  0  0  0  0  0  0  0  0  0  0
   -0.4878    0.3910   -1.4151 H   0  0  0  0  0  0  0  0  0  0  0  0
  -18.9047   36.1303  -70.4236 H   0  0  0  0  0  0  0  0  0  0  0  0
  1  2  1  0  0  0  0
  1 80  1  0  0  0  0
  2  3  1  0  0  0  0
  2 81  1  0  0  0  0
  2 82  1  0  0  0  0
  3  4  1  0  0  0  0
  3  5  1  0  0  0  0
  3 83  1  0  0  0  0
  4  5  1  0  0  0  0
  4 84  1  0  0  0  0
  4 85  1  0  0  0  0
  5  6  1  0  0  0  0
  5 86  1  0  0  0  0
  6  7  1  0  0  0  0
  7  8  1  0  0  0  0
  8  9  1  0  0  0  0
  9 10  1  0  0  0  0
 10 11  1  0  0  0  0
 11 12  1  0  0  0  0
 12 13  1  0  0  0  0
 13 14  1  0  0  0  0
 14 15  1  0  0  0  0
 15 16  1  0  0  0  0
 16 17  1  0  0  0  0
 17 18  1  0  0  0  0
 18 19  1  0  0  0  0
 19 20  1  0  0  0  0
 20 21  1  0  0  0  0
 21 22  1  0  0  0  0
 22 23  1  0  0  0  0
 23 24  1  0  0  0  0
 24 25  1  0  0  0  0
 25 26  1  0  0  0  0
 26 27  1  0  0  0  0
 27 28  1  0  0  0  0
 28 29  1  0  0  0  0
 29 30  1  0  0  0  0
 30 31  1  0  0  0  0
 31 32  1  0  0  0  0
 32 33  1  0  0  0  0
 33 34  1  0  0  0  0
 34 35  1  0  0  0  0
 35 36  1  0  0  0  0
 36 37  1  0  0  0  0
 37 38  1  0  0  0  0
 38 39  1  0  0  0  0
 39 40  1  0  0  0  0
 40 41  1  0  0  0  0
 41 42  1  0  0  0  0
 42 43  1  0  0  0  0
 43 44  1  0  0  0  0
 44 45  1  0  0  0  0
 45 46  1  0  0  0  0
 46 47  1  0  0  0  0
 47 48  1  0  0  0  0
 48 49  1  0  0  0  0
 49 50  1  0  0  0  0
 50 51  1  0  0  0  0
 51 52  1  0  0  0  0
 52 53  1  0  0  0  0
 53 54  1  0  0  0  0
 54 55  1  0  0  0  0
 55 56  1  0  0  0  0
 56 57  1  0  0  0  0
 57 58  1  0  0  0  0
 58 59  1  0  0  0  0
 59 60  1  0  0  0  0
 60 61  1  0  0  0  0
 61 62  1  0  0  0  0
 62 63  1  0  0  0  0
 63 64  1  0  0  0  0
 64 65  1  0  0  0  0
 65 66  1  0  0  0  0
 66 67  1  0  0  0  0
 67 68  1  0  0  0  0
 68 69  1  0  0  0  0
 69 70  1  0  0  0  0
 70 71  1  0  0  0  0
 71 72  1  0  0  0  0
 72 73  1  0  0  0  0
 73 74  1  0  0  0  0
 74 75  1  0  0  0  0
 75 76  1  0  0  0  0
 76 77  1  0  0  0  0
 77 78  1  0  0  0  0
 78 79  1  0  0  0  0
 79 87  1  0  0  0  0
M  END
$$$$
