
 OpenBabel04232216433D

 51 51  0  0  0  0  0  0  0  0999 V2000
    2.4823    0.7357   -1.2916 C   0  0  0  0  0  0  0  0  0  0  0  0
    2.4098    1.4048    0.0846 C   0  0  0  0  0  0  0  0  0  0  0  0
    2.6665    2.7152    0.2400 C   0  0  0  0  0  0  0  0  0  0  0  0
    3.9216    3.0213    0.9394 C   0  0  0  0  0  0  0  0  0  0  0  0
    4.8488    3.6705    0.1854 C   0  0  0  0  0  0  0  0  0  0  0  0
    6.0415    2.9098   -0.0631 C   0  0  0  0  0  0  0  0  0  0  0  0
    6.2995    2.5412   -1.3086 C   0  0  0  0  0  0  0  0  0  0  0  0
    5.8771    3.4098   -2.5521 C   0  0  0  0  0  0  0  0  0  0  0  0
    6.9216    1.2263   -1.5353 C   0  0  0  0  0  0  0  0  0  0  0  0
    6.0058    0.6034   -2.5970 C   0  0  0  0  0  0  0  0  0  0  0  0
    6.9292    0.7076   -4.0100 C   0  0  0  0  0  0  0  0  0  0  0  0
    8.1200    1.9174   -4.2495 C   0  0  0  0  0  0  0  0  0  0  0  0
    9.5648    1.9230   -3.9405 N   0  0  0  0  0  0  0  0  0  0  0  0
   10.5888    1.3682   -4.8058 C   0  0  0  0  0  0  0  0  0  0  0  0
   10.7381    1.8568   -6.2608 C   0  0  0  0  0  0  0  0  0  0  0  0
   11.4850    3.1804   -6.4870 C   0  0  0  0  0  0  0  0  0  0  0  0
    4.7749    0.0074   -2.4210 N   0  0  0  0  0  0  0  0  0  0  0  0
    3.7365   -0.1476   -1.3332 C   0  0  0  0  0  0  0  0  0  0  0  0
    3.4357   -1.2783   -0.5835 C   0  0  0  0  0  0  0  0  0  0  0  0
    2.0801   -1.9810    0.0814 C   0  0  0  0  0  0  0  0  0  0  0  0
    0.7465   -1.4169    0.6964 C   0  0  0  0  0  0  0  0  0  0  0  0
    2.4730    1.4955   -2.1033 H   0  0  0  0  0  0  0  0  0  0  0  0
    1.5467    0.1735   -1.4088 H   0  0  0  0  0  0  0  0  0  0  0  0
    2.6462    0.7340    0.9028 H   0  0  0  0  0  0  0  0  0  0  0  0
    2.4245    3.3948   -0.5694 H   0  0  0  0  0  0  0  0  0  0  0  0
    4.2744    2.2497    1.6395 H   0  0  0  0  0  0  0  0  0  0  0  0
    4.4421    4.2503   -0.6649 H   0  0  0  0  0  0  0  0  0  0  0  0
    6.4638    2.3514    0.7593 H   0  0  0  0  0  0  0  0  0  0  0  0
    4.8258    3.6637   -2.4999 H   0  0  0  0  0  0  0  0  0  0  0  0
    5.9525    2.9090   -3.4915 H   0  0  0  0  0  0  0  0  0  0  0  0
    6.4899    4.3260   -2.5926 H   0  0  0  0  0  0  0  0  0  0  0  0
    7.2745    0.4568   -0.8418 H   0  0  0  0  0  0  0  0  0  0  0  0
    7.8787    1.4919   -1.9710 H   0  0  0  0  0  0  0  0  0  0  0  0
    6.1915    0.9019   -4.7983 H   0  0  0  0  0  0  0  0  0  0  0  0
    7.4214   -0.2517   -4.1929 H   0  0  0  0  0  0  0  0  0  0  0  0
    8.0058    2.2830   -5.2745 H   0  0  0  0  0  0  0  0  0  0  0  0
    7.8513    2.7891   -3.6568 H   0  0  0  0  0  0  0  0  0  0  0  0
    9.8087    1.8864   -2.9514 H   0  0  0  0  0  0  0  0  0  0  0  0
   10.4372    0.2878   -4.8353 H   0  0  0  0  0  0  0  0  0  0  0  0
   11.5591    1.5388   -4.3129 H   0  0  0  0  0  0  0  0  0  0  0  0
    9.7753    1.8893   -6.7416 H   0  0  0  0  0  0  0  0  0  0  0  0
   11.3127    1.0947   -6.8030 H   0  0  0  0  0  0  0  0  0  0  0  0
   10.9900    4.0224   -6.0070 H   0  0  0  0  0  0  0  0  0  0  0  0
   11.5339    3.3893   -7.5663 H   0  0  0  0  0  0  0  0  0  0  0  0
   12.5218    3.1279   -6.1344 H   0  0  0  0  0  0  0  0  0  0  0  0
    4.1775   -1.4097    0.2098 H   0  0  0  0  0  0  0  0  0  0  0  0
    2.4690   -2.5736    0.9265 H   0  0  0  0  0  0  0  0  0  0  0  0
    1.7381   -2.7484   -0.6339 H   0  0  0  0  0  0  0  0  0  0  0  0
    0.8902   -0.6808    1.4935 H   0  0  0  0  0  0  0  0  0  0  0  0
    0.1927   -2.2435    1.1916 H   0  0  0  0  0  0  0  0  0  0  0  0
    0.0314   -1.0270   -0.0381 H   0  0  0  0  0  0  0  0  0  0  0  0
  1  2  1  0  0  0  0
  1 18  1  0  0  0  0
  1 22  1  0  0  0  0
  1 23  1  0  0  0  0
  2  3  2  3  0  0  0
  2 24  1  0  0  0  0
  3  4  1  0  0  0  0
  3 25  1  0  0  0  0
  4  5  2  3  0  0  0
  4 26  1  0  0  0  0
  5  6  1  0  0  0  0
  5 27  1  0  0  0  0
  6  7  2  3  0  0  0
  6 28  1  0  0  0  0
  7  8  1  0  0  0  0
  7  9  1  0  0  0  0
  8 29  1  0  0  0  0
  8 30  1  0  0  0  0
  8 31  1  0  0  0  0
  9 10  1  0  0  0  0
  9 32  1  0  0  0  0
  9 33  1  0  0  0  0
 10 11  1  0  0  0  0
 10 17  2  3  0  0  0
 11 12  1  0  0  0  0
 11 34  1  0  0  0  0
 11 35  1  0  0  0  0
 12 13  1  0  0  0  0
 12 36  1  0  0  0  0
 12 37  1  0  0  0  0
 13 14  1  0  0  0  0
 13 38  1  0  0  0  0
 14 15  1  0  0  0  0
 14 39  1  0  0  0  0
 14 40  1  0  0  0  0
 15 16  1  0  0  0  0
 15 41  1  0  0  0  0
 15 42  1  0  0  0  0
 16 43  1  0  0  0  0
 16 44  1  0  0  0  0
 16 45  1  0  0  0  0
 17 18  1  0  0  0  0
 18 19  2  3  0  0  0
 19 20  1  0  0  0  0
 19 46  1  0  0  0  0
 20 21  1  0  0  0  0
 20 47  1  0  0  0  0
 20 48  1  0  0  0  0
 21 49  1  0  0  0  0
 21 50  1  0  0  0  0
 21 51  1  0  0  0  0
M  END
$$$$
