
 OpenBabel04232216503D

 33 33  0  0  0  0  0  0  0  0999 V2000
    6.0625    2.1402    0.5976 C   0  0  0  0  0  0  0  0  0  0  0  0
    6.7945    1.7548    1.8632 C   0  0  0  0  0  0  0  0  0  0  0  0
    6.0631    1.0493    2.7588 C   0  0  0  0  0  0  0  0  0  0  0  0
    5.4963   -0.2531    2.2614 C   0  0  0  0  0  0  0  0  0  0  0  0
    5.4482   -1.2840    3.1277 C   0  0  0  0  0  0  0  0  0  0  0  0
    6.7777   -1.7224    3.5329 C   0  0  0  0  0  0  0  0  0  0  0  0
    7.3563   -1.1794    4.6204 C   0  0  0  0  0  0  0  0  0  0  0  0
    8.7714   -1.3137    4.8140 C   0  0  0  0  0  0  0  0  0  0  0  0
    9.4819   -0.8970    5.8700 C   0  0  0  0  0  0  0  0  0  0  0  0
   10.9428   -1.0152    5.7890 C   0  0  0  0  0  0  0  0  0  0  0  0
   11.6957    0.0872    5.9668 C   0  0  0  0  0  0  0  0  0  0  0  0
   11.9110    0.7899    4.6855 C   0  0  0  0  0  0  0  0  0  0  0  0
   11.1200    1.8303    4.4292 C   0  0  0  0  0  0  0  0  0  0  0  0
   10.5344    2.1118    3.0711 C   0  0  0  0  0  0  0  0  0  0  0  0
   11.1390    2.7467    2.2333 O   0  0  0  0  0  0  0  0  0  0  0  0
    9.1220    1.5359    2.8846 C   0  0  0  0  0  0  0  0  0  0  0  0
    8.2877    1.8434    1.8628 C   0  0  0  0  0  0  0  0  0  0  0  0
    4.9655    2.0764    0.7351 H   0  0  0  0  0  0  0  0  0  0  0  0
    6.3143    1.4446   -0.2133 H   0  0  0  0  0  0  0  0  0  0  0  0
    6.2744    3.1687    0.2775 H   0  0  0  0  0  0  0  0  0  0  0  0
    5.1386    1.5551    3.0833 H   0  0  0  0  0  0  0  0  0  0  0  0
    5.9288   -0.4970    1.2828 H   0  0  0  0  0  0  0  0  0  0  0  0
    4.8086   -1.1683    4.0074 H   0  0  0  0  0  0  0  0  0  0  0  0
    7.3370   -2.3043    2.8098 H   0  0  0  0  0  0  0  0  0  0  0  0
    6.8026   -0.5149    5.2726 H   0  0  0  0  0  0  0  0  0  0  0  0
    9.3020   -1.7064    3.9433 H   0  0  0  0  0  0  0  0  0  0  0  0
    9.0224   -0.3850    6.7122 H   0  0  0  0  0  0  0  0  0  0  0  0
   11.2256   -1.6659    4.9528 H   0  0  0  0  0  0  0  0  0  0  0  0
   11.4568    0.7520    6.7970 H   0  0  0  0  0  0  0  0  0  0  0  0
   12.3862    0.2020    3.8960 H   0  0  0  0  0  0  0  0  0  0  0  0
   10.5906    2.3550    5.2563 H   0  0  0  0  0  0  0  0  0  0  0  0
    9.4049    0.4766    2.8011 H   0  0  0  0  0  0  0  0  0  0  0  0
    8.7143    1.8829    0.8786 H   0  0  0  0  0  0  0  0  0  0  0  0
  1  2  1  0  0  0  0
  1 18  1  0  0  0  0
  1 19  1  0  0  0  0
  1 20  1  0  0  0  0
  2  3  2  3  0  0  0
  2 17  1  0  0  0  0
  3  4  1  0  0  0  0
  3 21  1  0  0  0  0
  4  5  2  3  0  0  0
  4 22  1  0  0  0  0
  5  6  1  0  0  0  0
  5 23  1  0  0  0  0
  6  7  2  3  0  0  0
  6 24  1  0  0  0  0
  7  8  1  0  0  0  0
  7 25  1  0  0  0  0
  8  9  2  3  0  0  0
  8 26  1  0  0  0  0
  9 10  1  0  0  0  0
  9 27  1  0  0  0  0
 10 11  2  3  0  0  0
 10 28  1  0  0  0  0
 11 12  1  0  0  0  0
 11 29  1  0  0  0  0
 12 13  2  3  0  0  0
 12 30  1  0  0  0  0
 13 14  1  0  0  0  0
 13 31  1  0  0  0  0
 14 15  2  0  0  0  0
 14 16  1  0  0  0  0
 16 17  2  3  0  0  0
 16 32  1  0  0  0  0
 17 33  1  0  0  0  0
M  END
$$$$
