
 OpenBabel04232216503D

 58 60  0  0  1  0  0  0  0  0999 V2000
    0.0698   -1.0999   -1.1992 C   0  0  0  0  0  0  0  0  0  0  0  0
    1.5124   -0.6274   -1.4055 C   0  0  0  0  0  0  0  0  0  0  0  0
    1.5744    0.6554   -0.9385 N   0  0  0  0  0  0  0  0  0  0  0  0
    1.6572    1.7697   -1.5837 C   0  0  0  0  0  0  0  0  0  0  0  0
    2.6199    2.6953   -0.8561 C   0  0  0  0  0  0  0  0  0  0  0  0
    3.8796    2.0884   -1.1460 C   0  0  0  0  0  0  0  0  0  0  0  0
    3.8971    0.9878   -0.0272 C   0  0  3  0  0  0  0  0  0  0  0  0
    3.5957    0.2781    1.3783 C   0  0  0  0  0  0  0  0  0  0  0  0
    4.5128   -0.2458    2.0512 O   0  0  0  0  0  0  0  0  0  0  0  0
    2.2328   -0.0094    1.9237 C   0  0  0  0  0  0  0  0  0  0  0  0
    1.7899    1.1286    2.8023 C   0  0  0  0  0  0  0  0  0  0  0  0
    0.5728    1.8286    2.2268 C   0  0  0  0  0  0  0  0  0  0  0  0
    0.7896    3.3333    2.1345 C   0  0  0  0  0  0  0  0  0  0  0  0
    2.5969    3.2772    0.3722 C   0  0  0  0  0  0  0  0  0  0  0  0
    1.3215    3.7297    0.8181 N   0  0  0  0  0  0  0  0  0  0  0  0
    0.2746    4.1583   -0.1376 C   0  0  0  0  0  0  0  0  0  0  0  0
   -0.2973    5.5289    0.2247 C   0  0  0  0  0  0  0  0  0  0  0  0
    0.7608    6.6221    0.3821 C   0  0  0  0  0  0  0  0  0  0  0  0
    1.5620    6.8678   -0.8878 C   0  0  0  0  0  0  0  0  0  0  0  0
    0.7066    7.2153   -1.8872 F   0  0  0  0  0  0  0  0  0  0  0  0
    3.8341    3.3752    1.1513 N   0  0  0  0  0  0  0  0  0  0  0  0
    4.9523    2.6185    1.1036 C   0  0  0  0  0  0  0  0  0  0  0  0
    5.2600    1.2568    0.2249 C   0  0  0  0  0  0  0  0  0  0  0  0
    5.9750    0.2508   -0.3430 C   0  0  0  0  0  0  0  0  0  0  0  0
    5.3641   -0.8709   -1.2769 C   0  0  0  0  0  0  0  0  0  0  0  0
    4.1636   -1.4561   -1.6637 C   0  0  0  0  0  0  0  0  0  0  0  0
    2.5935   -1.5054   -1.4565 C   0  0  0  0  0  0  0  0  0  0  0  0
    2.2085   -2.9639   -1.1795 C   0  0  0  0  0  0  0  0  0  0  0  0
   -0.6220   -0.2444   -1.1655 H   0  0  0  0  0  0  0  0  0  0  0  0
   -0.0401   -1.6037   -0.2324 H   0  0  0  0  0  0  0  0  0  0  0  0
   -0.2681   -1.7488   -2.0075 H   0  0  0  0  0  0  0  0  0  0  0  0
    1.5863    1.8935   -2.6819 H   0  0  0  0  0  0  0  0  0  0  0  0
    4.6622    2.8742   -1.2039 H   0  0  0  0  0  0  0  0  0  0  0  0
    3.9585    1.6496   -2.1548 H   0  0  0  0  0  0  0  0  0  0  0  0
    3.6314    0.1840   -0.6136 H   0  0  0  0  0  0  0  0  0  0  0  0
    1.5189   -0.3567    1.1881 H   0  0  0  0  0  0  0  0  0  0  0  0
    2.3582   -0.8938    2.5717 H   0  0  0  0  0  0  0  0  0  0  0  0
    2.6168    1.8303    2.9689 H   0  0  0  0  0  0  0  0  0  0  0  0
    1.5423    0.7375    3.7930 H   0  0  0  0  0  0  0  0  0  0  0  0
   -0.2700    1.6173    2.9072 H   0  0  0  0  0  0  0  0  0  0  0  0
    0.2602    1.4100    1.2601 H   0  0  0  0  0  0  0  0  0  0  0  0
    1.4277    3.7091    2.9385 H   0  0  0  0  0  0  0  0  0  0  0  0
   -0.1940    3.7864    2.2865 H   0  0  0  0  0  0  0  0  0  0  0  0
   -0.5292    3.4123   -0.1775 H   0  0  0  0  0  0  0  0  0  0  0  0
    0.6642    4.2341   -1.1596 H   0  0  0  0  0  0  0  0  0  0  0  0
   -0.8745    5.4645    1.1533 H   0  0  0  0  0  0  0  0  0  0  0  0
   -1.0144    5.8207   -0.5533 H   0  0  0  0  0  0  0  0  0  0  0  0
    1.4416    6.3782    1.2023 H   0  0  0  0  0  0  0  0  0  0  0  0
    0.2448    7.5505    0.6565 H   0  0  0  0  0  0  0  0  0  0  0  0
    2.1282    5.9965   -1.2058 H   0  0  0  0  0  0  0  0  0  0  0  0
    2.2624    7.7034   -0.7453 H   0  0  0  0  0  0  0  0  0  0  0  0
    5.7983    2.9060    1.7381 H   0  0  0  0  0  0  0  0  0  0  0  0
    7.0560    0.2167   -0.2274 H   0  0  0  0  0  0  0  0  0  0  0  0
    6.2316   -1.3184   -1.7804 H   0  0  0  0  0  0  0  0  0  0  0  0
    4.3528   -2.2494   -2.4019 H   0  0  0  0  0  0  0  0  0  0  0  0
    3.0629   -3.6465   -1.1828 H   0  0  0  0  0  0  0  0  0  0  0  0
    1.4789   -3.3326   -1.9048 H   0  0  0  0  0  0  0  0  0  0  0  0
    1.7753   -3.0386   -0.1705 H   0  0  0  0  0  0  0  0  0  0  0  0
  1  2  1  0  0  0  0
  1 29  1  0  0  0  0
  1 30  1  0  0  0  0
  1 31  1  0  0  0  0
  2  3  1  0  0  0  0
  2 27  2  3  0  0  0
  3  4  2  3  0  0  0
  4  5  1  0  0  0  0
  4 32  1  0  0  0  0
  5  6  1  0  0  0  0
  5 14  2  0  0  0  0
  6  7  1  0  0  0  0
  6 33  1  0  0  0  0
  6 34  1  0  0  0  0
  7  8  1  0  0  0  0
  7 23  1  0  0  0  0
  7 35  1  0  0  0  0
  8  9  2  0  0  0  0
  8 10  1  0  0  0  0
 10 11  1  0  0  0  0
 10 36  1  0  0  0  0
 10 37  1  0  0  0  0
 11 12  1  0  0  0  0
 11 38  1  0  0  0  0
 11 39  1  0  0  0  0
 12 13  1  0  0  0  0
 12 40  1  0  0  0  0
 12 41  1  0  0  0  0
 13 15  1  0  0  0  0
 13 42  1  0  0  0  0
 13 43  1  0  0  0  0
 14 15  1  0  0  0  0
 14 21  1  0  0  0  0
 15 16  1  0  0  0  0
 16 17  1  0  0  0  0
 16 44  1  0  0  0  0
 16 45  1  0  0  0  0
 17 18  1  0  0  0  0
 17 46  1  0  0  0  0
 17 47  1  0  0  0  0
 18 19  1  0  0  0  0
 18 48  1  0  0  0  0
 18 49  1  0  0  0  0
 19 20  1  0  0  0  0
 19 50  1  0  0  0  0
 19 51  1  0  0  0  0
 21 22  2  0  0  0  0
 22 23  1  0  0  0  0
 22 52  1  0  0  0  0
 23 24  2  3  0  0  0
 24 25  1  0  0  0  0
 24 53  1  0  0  0  0
 25 26  2  3  0  0  0
 25 54  1  0  0  0  0
 26 27  1  0  0  0  0
 26 55  1  0  0  0  0
 27 28  1  0  0  0  0
 28 56  1  0  0  0  0
 28 57  1  0  0  0  0
 28 58  1  0  0  0  0
M  END
$$$$
