
 OpenBabel04232216573D

 54 55  0  0  0  0  0  0  0  0999 V2000
    5.0801   -0.3332   -5.0634 C   0  0  0  0  0  0  0  0  0  0  0  0
    6.3911   -0.5928   -5.6752 O   0  0  0  0  0  0  0  0  0  0  0  0
    7.7092   -0.5325   -5.0147 C   0  0  0  0  0  0  0  0  0  0  0  0
    7.5196   -0.2108   -3.5725 C   0  0  0  0  0  0  0  0  0  0  0  0
    6.8177   -1.0696   -2.6910 C   0  0  0  0  0  0  0  0  0  0  0  0
    7.8091   -1.7378   -1.8895 C   0  0  0  0  0  0  0  0  0  0  0  0
    8.3138   -0.8520   -0.7727 C   0  0  0  0  0  0  0  0  0  0  0  0
    7.4564   -0.8687    0.5120 C   0  0  0  0  0  0  0  0  0  0  0  0
    8.3308   -2.8225   -2.5498 C   0  0  0  0  0  0  0  0  0  0  0  0
    9.6642   -2.8040   -3.1234 C   0  0  0  0  0  0  0  0  0  0  0  0
    9.8507   -3.3204   -4.3594 C   0  0  0  0  0  0  0  0  0  0  0  0
   11.1178   -3.1208   -5.1596 C   0  0  0  0  0  0  0  0  0  0  0  0
   12.2175   -3.4944   -4.7215 O   0  0  0  0  0  0  0  0  0  0  0  0
   11.0252   -2.3466   -6.4659 C   0  0  0  0  0  0  0  0  0  0  0  0
   10.6508   -1.1267   -5.8768 C   0  0  0  0  0  0  0  0  0  0  0  0
   12.0911   -0.2543   -5.8495 C   0  0  0  0  0  0  0  0  0  0  0  0
   13.7326   -0.5357   -5.2800 C   0  0  0  0  0  0  0  0  0  0  0  0
   14.6695   -1.1699   -6.3958 C   0  0  0  0  0  0  0  0  0  0  0  0
   16.1749   -1.4093   -6.4688 C   0  0  0  0  0  0  0  0  0  0  0  0
   16.5444   -2.1075   -7.8121 C   0  0  0  0  0  0  0  0  0  0  0  0
   15.4296   -2.9443   -8.5367 C   0  0  0  0  0  0  0  0  0  0  0  0
   13.7961   -2.6517   -8.6059 C   0  0  0  0  0  0  0  0  0  0  0  0
   12.3610   -2.8436   -7.5414 C   0  0  0  0  0  0  0  0  0  0  0  0
    8.9063   -0.7943   -5.7926 C   0  0  0  0  0  0  0  0  0  0  0  0
    4.3110   -0.9523   -5.5640 H   0  0  0  0  0  0  0  0  0  0  0  0
    4.7358    0.7041   -5.1992 H   0  0  0  0  0  0  0  0  0  0  0  0
    4.9148   -0.5733   -3.9934 H   0  0  0  0  0  0  0  0  0  0  0  0
    6.9634    0.7421   -3.5595 H   0  0  0  0  0  0  0  0  0  0  0  0
    6.1008   -1.8185   -3.0538 H   0  0  0  0  0  0  0  0  0  0  0  0
    8.3413    0.1993   -1.1058 H   0  0  0  0  0  0  0  0  0  0  0  0
    9.3375   -1.1186   -0.5169 H   0  0  0  0  0  0  0  0  0  0  0  0
    6.5204   -0.3062    0.3946 H   0  0  0  0  0  0  0  0  0  0  0  0
    8.0100   -0.3950    1.3324 H   0  0  0  0  0  0  0  0  0  0  0  0
    7.1988   -1.8838    0.8305 H   0  0  0  0  0  0  0  0  0  0  0  0
    7.6419   -3.3299   -3.2220 H   0  0  0  0  0  0  0  0  0  0  0  0
   10.4332   -2.1889   -2.6506 H   0  0  0  0  0  0  0  0  0  0  0  0
    9.0257   -3.7722   -4.9136 H   0  0  0  0  0  0  0  0  0  0  0  0
   12.0129    0.7099   -6.3582 H   0  0  0  0  0  0  0  0  0  0  0  0
   12.4376   -0.7723   -6.7286 H   0  0  0  0  0  0  0  0  0  0  0  0
   13.7528   -1.2061   -4.4143 H   0  0  0  0  0  0  0  0  0  0  0  0
   14.1829    0.4243   -4.9879 H   0  0  0  0  0  0  0  0  0  0  0  0
   14.4399   -0.6419   -7.3313 H   0  0  0  0  0  0  0  0  0  0  0  0
   14.3317   -2.2044   -6.4034 H   0  0  0  0  0  0  0  0  0  0  0  0
   16.5524   -2.0701   -5.6776 H   0  0  0  0  0  0  0  0  0  0  0  0
   16.7890   -0.4786   -6.3918 H   0  0  0  0  0  0  0  0  0  0  0  0
   16.9561   -1.3482   -8.5271 H   0  0  0  0  0  0  0  0  0  0  0  0
   17.4388   -2.7623   -7.6709 H   0  0  0  0  0  0  0  0  0  0  0  0
   15.6223   -4.0070   -8.3309 H   0  0  0  0  0  0  0  0  0  0  0  0
   15.7453   -2.8832   -9.6228 H   0  0  0  0  0  0  0  0  0  0  0  0
   13.5459   -3.4594   -9.3342 H   0  0  0  0  0  0  0  0  0  0  0  0
   13.6831   -1.7402   -9.2141 H   0  0  0  0  0  0  0  0  0  0  0  0
   12.2065   -3.9223   -7.5946 H   0  0  0  0  0  0  0  0  0  0  0  0
   11.7912   -2.3711   -8.3618 H   0  0  0  0  0  0  0  0  0  0  0  0
    8.5849   -1.0235   -6.8336 H   0  0  0  0  0  0  0  0  0  0  0  0
  1  2  1  0  0  0  0
  1 25  1  0  0  0  0
  1 26  1  0  0  0  0
  1 27  1  0  0  0  0
  2  3  1  0  0  0  0
  3  4  1  0  0  0  0
  3 24  2  0  0  0  0
  4  5  2  0  0  0  0
  4 28  1  0  0  0  0
  5  6  1  0  0  0  0
  5 29  1  0  0  0  0
  6  7  1  0  0  0  0
  6  9  2  0  0  0  0
  7  8  1  0  0  0  0
  7 30  1  0  0  0  0
  7 31  1  0  0  0  0
  8 32  1  0  0  0  0
  8 33  1  0  0  0  0
  8 34  1  0  0  0  0
  9 10  1  0  0  0  0
  9 35  1  0  0  0  0
 10 11  2  0  0  0  0
 10 36  1  0  0  0  0
 11 12  1  0  0  0  0
 11 37  1  0  0  0  0
 12 13  2  0  0  0  0
 12 14  1  0  0  0  0
 14 15  2  0  0  0  0
 14 23  1  0  0  0  0
 15 16  1  0  0  0  0
 15 24  1  0  0  0  0
 16 17  1  0  0  0  0
 16 38  1  0  0  0  0
 16 39  1  0  0  0  0
 17 18  1  0  0  0  0
 17 40  1  0  0  0  0
 17 41  1  0  0  0  0
 18 19  1  0  0  0  0
 18 42  1  0  0  0  0
 18 43  1  0  0  0  0
 19 20  1  0  0  0  0
 19 44  1  0  0  0  0
 19 45  1  0  0  0  0
 20 21  1  0  0  0  0
 20 46  1  0  0  0  0
 20 47  1  0  0  0  0
 21 22  1  0  0  0  0
 21 48  1  0  0  0  0
 21 49  1  0  0  0  0
 22 23  1  0  0  0  0
 22 50  1  0  0  0  0
 22 51  1  0  0  0  0
 23 52  1  0  0  0  0
 23 53  1  0  0  0  0
 24 54  1  0  0  0  0
M  END
$$$$
