
 OpenBabel04232216453D

 43 44  0  0  0  0  0  0  0  0999 V2000
    2.8341   -2.0858   -0.2117 C   0  0  0  0  0  0  0  0  0  0  0  0
    3.9612   -1.6096    0.6966 C   0  0  0  0  0  0  0  0  0  0  0  0
    3.5778   -0.2555    1.2920 C   0  0  0  0  0  0  0  0  0  0  0  0
    4.6677    0.4935    1.5263 C   0  0  0  0  0  0  0  0  0  0  0  0
    5.4232    0.9222    0.2627 C   0  0  0  0  0  0  0  0  0  0  0  0
    5.3798    0.0618    2.7494 C   0  0  0  0  0  0  0  0  0  0  0  0
    4.5914   -0.7935    3.7988 C   0  0  0  0  0  0  0  0  0  0  0  0
    5.2719   -1.5796    4.9433 C   0  0  0  0  0  0  0  0  0  0  0  0
    5.7324   -0.7476    6.1264 C   0  0  0  0  0  0  0  0  0  0  0  0
    4.5608   -0.0126    6.7750 C   0  0  0  0  0  0  0  0  0  0  0  0
    4.9919    0.7586    7.9996 C   0  0  0  0  0  0  0  0  0  0  0  0
    6.6608   -0.2070    2.4607 C   0  0  0  0  0  0  0  0  0  0  0  0
    6.9665   -1.6125    2.2855 C   0  0  0  0  0  0  0  0  0  0  0  0
    8.1412   -2.0285    2.8226 C   0  0  0  0  0  0  0  0  0  0  0  0
    9.1748   -1.0865    3.4037 C   0  0  0  0  0  0  0  0  0  0  0  0
    8.4274   -3.3636    2.9291 N   0  0  0  0  0  0  0  0  0  0  0  0
    7.5678   -4.2406    2.6739 N   0  0  0  0  0  0  0  0  0  0  0  0
    6.3973   -3.8874    2.0416 N   0  0  0  0  0  0  0  0  0  0  0  0
    5.3918   -4.7790    2.1461 F   0  0  0  0  0  0  0  0  0  0  0  0
    6.0351   -2.5386    1.7721 N   0  0  0  0  0  0  0  0  0  0  0  0
    4.9308   -2.4619    0.8924 N   0  0  0  0  0  0  0  0  0  0  0  0
    2.0808   -2.5873    0.4148 H   0  0  0  0  0  0  0  0  0  0  0  0
    3.1972   -2.7731   -0.9748 H   0  0  0  0  0  0  0  0  0  0  0  0
    2.3499   -1.2304   -0.6954 H   0  0  0  0  0  0  0  0  0  0  0  0
    2.8160   -0.4295    2.0458 H   0  0  0  0  0  0  0  0  0  0  0  0
    4.7311    1.1991   -0.5444 H   0  0  0  0  0  0  0  0  0  0  0  0
    6.0496    0.1104   -0.1349 H   0  0  0  0  0  0  0  0  0  0  0  0
    6.0628    1.7914    0.4502 H   0  0  0  0  0  0  0  0  0  0  0  0
    4.0524   -1.5954    3.2799 H   0  0  0  0  0  0  0  0  0  0  0  0
    3.8015   -0.1581    4.2096 H   0  0  0  0  0  0  0  0  0  0  0  0
    6.1061   -2.1909    4.5970 H   0  0  0  0  0  0  0  0  0  0  0  0
    4.5419   -2.3162    5.3116 H   0  0  0  0  0  0  0  0  0  0  0  0
    6.5109   -0.0450    5.8113 H   0  0  0  0  0  0  0  0  0  0  0  0
    6.1885   -1.4227    6.8625 H   0  0  0  0  0  0  0  0  0  0  0  0
    3.7758   -0.7305    7.0451 H   0  0  0  0  0  0  0  0  0  0  0  0
    4.1229    0.6955    6.0661 H   0  0  0  0  0  0  0  0  0  0  0  0
    5.3115    0.0807    8.7961 H   0  0  0  0  0  0  0  0  0  0  0  0
    4.1544    1.3573    8.3695 H   0  0  0  0  0  0  0  0  0  0  0  0
    5.8182    1.4345    7.7600 H   0  0  0  0  0  0  0  0  0  0  0  0
    7.2516    0.3988    1.7772 H   0  0  0  0  0  0  0  0  0  0  0  0
    9.2766   -0.1675    2.8141 H   0  0  0  0  0  0  0  0  0  0  0  0
   10.1701   -1.5433    3.4249 H   0  0  0  0  0  0  0  0  0  0  0  0
    8.9040   -0.8064    4.4273 H   0  0  0  0  0  0  0  0  0  0  0  0
  1  2  1  0  0  0  0
  1 22  1  0  0  0  0
  1 23  1  0  0  0  0
  1 24  1  0  0  0  0
  2  3  1  0  0  0  0
  2 21  2  0  0  0  0
  3  4  2  0  0  0  0
  3 25  1  0  0  0  0
  4  5  1  0  0  0  0
  4  6  1  0  0  0  0
  5 26  1  0  0  0  0
  5 27  1  0  0  0  0
  5 28  1  0  0  0  0
  6  7  1  0  0  0  0
  6 12  2  0  0  0  0
  7  8  1  0  0  0  0
  7 29  1  0  0  0  0
  7 30  1  0  0  0  0
  8  9  1  0  0  0  0
  8 31  1  0  0  0  0
  8 32  1  0  0  0  0
  9 10  1  0  0  0  0
  9 33  1  0  0  0  0
  9 34  1  0  0  0  0
 10 11  1  0  0  0  0
 10 35  1  0  0  0  0
 10 36  1  0  0  0  0
 11 37  1  0  0  0  0
 11 38  1  0  0  0  0
 11 39  1  0  0  0  0
 12 13  1  0  0  0  0
 12 40  1  0  0  0  0
 13 14  2  0  0  0  0
 13 20  1  0  0  0  0
 14 15  1  0  0  0  0
 14 16  1  0  0  0  0
 15 41  1  0  0  0  0
 15 42  1  0  0  0  0
 15 43  1  0  0  0  0
 16 17  2  0  0  0  0
 17 18  1  0  0  0  0
 18 19  1  0  0  0  0
 18 20  1  0  0  0  0
 20 21  1  0  0  0  0
M  END
$$$$
