
 OpenBabel04232217023D

163162  0  0  0  0  0  0  0  0999 V2000
   19.8367   21.4300   16.2660 O   0  0  0  0  0  0  0  0  0  0  0  0
   21.2573   21.1897   16.1157 N   0  0  0  0  0  0  0  0  0  0  0  0
   21.5051   20.1800   15.1493 N   0  0  0  0  0  0  0  0  0  0  0  0
   21.1075   20.5837   13.8416 N   0  0  0  0  0  0  0  0  0  0  0  0
   21.8179   21.7496   13.4043 N   0  0  0  0  0  0  0  0  0  0  0  0
   23.2295   21.4991   13.3261 N   0  0  0  0  0  0  0  0  0  0  0  0
   23.5172   20.4703   12.3679 N   0  0  0  0  0  0  0  0  0  0  0  0
   23.0717   20.8582   11.0581 N   0  0  0  0  0  0  0  0  0  0  0  0
   23.7401   22.0593   10.6364 N   0  0  0  0  0  0  0  0  0  0  0  0
   25.1602   21.8483   10.5981 N   0  0  0  0  0  0  0  0  0  0  0  0
   25.4766   20.7893    9.6744 N   0  0  0  0  0  0  0  0  0  0  0  0
   25.0079   21.1345    8.3563 N   0  0  0  0  0  0  0  0  0  0  0  0
   25.6347   22.3573    7.9222 N   0  0  0  0  0  0  0  0  0  0  0  0
   27.0656   22.1853    7.8989 N   0  0  0  0  0  0  0  0  0  0  0  0
   27.4068   21.1086    7.0029 N   0  0  0  0  0  0  0  0  0  0  0  0
   26.9310   21.4187    5.6782 N   0  0  0  0  0  0  0  0  0  0  0  0
   27.5329   22.6501    5.2292 N   0  0  0  0  0  0  0  0  0  0  0  0
   28.9681   22.5038    5.2206 N   0  0  0  0  0  0  0  0  0  0  0  0
   29.3312   21.4210    4.3389 N   0  0  0  0  0  0  0  0  0  0  0  0
   28.8453   21.7059    3.0103 N   0  0  0  0  0  0  0  0  0  0  0  0
   29.4203   22.9469    2.5501 N   0  0  0  0  0  0  0  0  0  0  0  0
   30.8588   22.8309    2.5455 N   0  0  0  0  0  0  0  0  0  0  0  0
   31.2444   21.7434    1.6784 N   0  0  0  0  0  0  0  0  0  0  0  0
   30.7533   22.0019    0.3461 N   0  0  0  0  0  0  0  0  0  0  0  0
   31.3049   23.2482   -0.1290 N   0  0  0  0  0  0  0  0  0  0  0  0
   32.7457   23.1593   -0.1301 N   0  0  0  0  0  0  0  0  0  0  0  0
   33.1530   22.0680   -0.9826 N   0  0  0  0  0  0  0  0  0  0  0  0
   32.6593   22.3004   -2.3189 N   0  0  0  0  0  0  0  0  0  0  0  0
   33.1894   23.5502   -2.8092 N   0  0  0  0  0  0  0  0  0  0  0  0
   34.6315   23.4869   -2.8056 N   0  0  0  0  0  0  0  0  0  0  0  0
   35.0599   22.3918   -3.6430 N   0  0  0  0  0  0  0  0  0  0  0  0
   34.5646   22.5981   -4.9831 N   0  0  0  0  0  0  0  0  0  0  0  0
   35.0719   23.8517   -5.4878 N   0  0  0  0  0  0  0  0  0  0  0  0
   36.5150   23.8162   -5.4791 N   0  0  0  0  0  0  0  0  0  0  0  0
   36.9667   22.7177   -6.2997 N   0  0  0  0  0  0  0  0  0  0  0  0
   36.4709   22.8953   -7.6436 N   0  0  0  0  0  0  0  0  0  0  0  0
   36.9558   24.1509   -8.1651 N   0  0  0  0  0  0  0  0  0  0  0  0
   38.3992   24.1425   -8.1538 N   0  0  0  0  0  0  0  0  0  0  0  0
   38.8727   23.0418   -8.9588 N   0  0  0  0  0  0  0  0  0  0  0  0
   38.3770   23.1927  -10.3061 N   0  0  0  0  0  0  0  0  0  0  0  0
   38.8393   24.4507  -10.8425 N   0  0  0  0  0  0  0  0  0  0  0  0
   40.2827   24.4698  -10.8276 N   0  0  0  0  0  0  0  0  0  0  0  0
   40.7790   23.3677  -11.6169 N   0  0  0  0  0  0  0  0  0  0  0  0
   40.2836   23.4912  -12.9672 N   0  0  0  0  0  0  0  0  0  0  0  0
   40.7238   24.7499  -13.5200 N   0  0  0  0  0  0  0  0  0  0  0  0
   42.1665   24.7963  -13.5028 N   0  0  0  0  0  0  0  0  0  0  0  0
   42.6852   23.6935  -14.2766 N   0  0  0  0  0  0  0  0  0  0  0  0
   42.1909   23.7900  -15.6295 N   0  0  0  0  0  0  0  0  0  0  0  0
   42.6090   25.0492  -16.1981 N   0  0  0  0  0  0  0  0  0  0  0  0
   44.0505   25.1227  -16.1788 N   0  0  0  0  0  0  0  0  0  0  0  0
   44.5914   24.0199  -16.9369 N   0  0  0  0  0  0  0  0  0  0  0  0
   44.0988   24.0892  -18.2920 N   0  0  0  0  0  0  0  0  0  0  0  0
   44.4948   25.3482  -18.8765 N   0  0  0  0  0  0  0  0  0  0  0  0
   45.9347   25.4490  -18.8550 N   0  0  0  0  0  0  0  0  0  0  0  0
   46.4985   24.3466  -19.5971 N   0  0  0  0  0  0  0  0  0  0  0  0
   46.0082   24.3882  -20.9540 N   0  0  0  0  0  0  0  0  0  0  0  0
   46.3812   25.6464  -21.5546 N   0  0  0  0  0  0  0  0  0  0  0  0
   47.8188   25.7747  -21.5352 N   0  0  0  0  0  0  0  0  0  0  0  0
   48.4039   24.6739  -22.2623 N   0  0  0  0  0  0  0  0  0  0  0  0
   47.9169   24.6896  -23.6206 N   0  0  0  0  0  0  0  0  0  0  0  0
   48.2695   25.9461  -24.2369 N   0  0  0  0  0  0  0  0  0  0  0  0
   49.7044   26.1005  -24.2132 N   0  0  0  0  0  0  0  0  0  0  0  0
   50.3121   25.0012  -24.9241 N   0  0  0  0  0  0  0  0  0  0  0  0
   49.8280   24.9891  -26.2837 N   0  0  0  0  0  0  0  0  0  0  0  0
   50.1575   26.2434  -26.9169 N   0  0  0  0  0  0  0  0  0  0  0  0
   51.5888   26.4269  -26.8925 N   0  0  0  0  0  0  0  0  0  0  0  0
   52.2215   25.3309  -27.5865 N   0  0  0  0  0  0  0  0  0  0  0  0
   51.7447   25.2902  -28.9477 N   0  0  0  0  0  0  0  0  0  0  0  0
   52.0523   26.5414  -29.5993 N   0  0  0  0  0  0  0  0  0  0  0  0
   53.4796   26.7536  -29.5784 N   0  0  0  0  0  0  0  0  0  0  0  0
   54.1365   25.6657  -30.2608 N   0  0  0  0  0  0  0  0  0  0  0  0
   53.6663   25.5916  -31.6232 N   0  0  0  0  0  0  0  0  0  0  0  0
   53.9458   26.8355  -32.2987 N   0  0  0  0  0  0  0  0  0  0  0  0
   55.3655   27.0924  -32.2825 N   0  0  0  0  0  0  0  0  0  0  0  0
   56.0698   26.0184  -32.9362 N   0  0  0  0  0  0  0  0  0  0  0  0
   55.6302   25.8950  -34.3038 N   0  0  0  0  0  0  0  0  0  0  0  0
   55.8777   27.1193  -35.0187 N   0  0  0  0  0  0  0  0  0  0  0  0
   57.2909   27.4095  -35.0513 N   0  0  0  0  0  0  0  0  0  0  0  0
   58.0180   26.3696  -35.7450 N   0  0  0  0  0  0  0  0  0  0  0  0
   57.5539   26.2247  -37.0913 N   0  0  0  0  0  0  0  0  0  0  0  0
   57.8141   27.4486  -37.7872 N   0  0  0  0  0  0  0  0  0  0  0  0
   19.8015   22.3965   16.1324 H   0  0  0  0  0  0  0  0  0  0  0  0
   21.5324   20.8679   17.0514 H   0  0  0  0  0  0  0  0  0  0  0  0
   21.0541   19.2927   15.3983 H   0  0  0  0  0  0  0  0  0  0  0  0
   20.0977   20.7583   13.8171 H   0  0  0  0  0  0  0  0  0  0  0  0
   21.6604   22.4938   14.0902 H   0  0  0  0  0  0  0  0  0  0  0  0
   23.5425   21.1899   14.2543 H   0  0  0  0  0  0  0  0  0  0  0  0
   23.0105   19.6286   12.6563 H   0  0  0  0  0  0  0  0  0  0  0  0
   22.0625   21.0435   11.1220 H   0  0  0  0  0  0  0  0  0  0  0  0
   23.5320   22.7816   11.3386 H   0  0  0  0  0  0  0  0  0  0  0  0
   25.4461   21.5535   11.5427 H   0  0  0  0  0  0  0  0  0  0  0  0
   24.9675   19.9530    9.9943 H   0  0  0  0  0  0  0  0  0  0  0  0
   23.9951   21.2949    8.4348 H   0  0  0  0  0  0  0  0  0  0  0  0
   25.4020   23.0727    8.6247 H   0  0  0  0  0  0  0  0  0  0  0  0
   27.3441   21.9166    8.8546 H   0  0  0  0  0  0  0  0  0  0  0  0
   26.9082   20.2749    7.3432 H   0  0  0  0  0  0  0  0  0  0  0  0
   25.9145   21.5622    5.7583 H   0  0  0  0  0  0  0  0  0  0  0  0
   27.2822   23.3668    5.9248 H   0  0  0  0  0  0  0  0  0  0  0  0
   29.2401   22.2484    6.1803 H   0  0  0  0  0  0  0  0  0  0  0  0
   28.8447   20.5847    4.6910 H   0  0  0  0  0  0  0  0  0  0  0  0
   27.8267   21.8304    3.0950 H   0  0  0  0  0  0  0  0  0  0  0  0
   29.1533   23.6631    3.2403 H   0  0  0  0  0  0  0  0  0  0  0  0
   31.1330   22.5924    3.5091 H   0  0  0  0  0  0  0  0  0  0  0  0
   30.7731   20.9029    2.0418 H   0  0  0  0  0  0  0  0  0  0  0  0
   29.7324   22.1086    0.4300 H   0  0  0  0  0  0  0  0  0  0  0  0
   31.0234   23.9670    0.5527 H   0  0  0  0  0  0  0  0  0  0  0  0
   33.0218   22.9378    0.8371 H   0  0  0  0  0  0  0  0  0  0  0  0
   32.6967   21.2237   -0.6088 H   0  0  0  0  0  0  0  0  0  0  0  0
   31.6365   22.3900   -2.2371 H   0  0  0  0  0  0  0  0  0  0  0  0
   32.8934   24.2726   -2.1374 H   0  0  0  0  0  0  0  0  0  0  0  0
   34.9089   23.2827   -1.8350 H   0  0  0  0  0  0  0  0  0  0  0  0
   34.6175   21.5447   -3.2590 H   0  0  0  0  0  0  0  0  0  0  0  0
   33.5401   22.6692   -4.9048 H   0  0  0  0  0  0  0  0  0  0  0  0
   34.7602   24.5766   -4.8260 H   0  0  0  0  0  0  0  0  0  0  0  0
   36.7930   23.6304   -4.5049 H   0  0  0  0  0  0  0  0  0  0  0  0
   36.5395   21.8678   -5.9048 H   0  0  0  0  0  0  0  0  0  0  0  0
   35.4451   22.9484   -7.5681 H   0  0  0  0  0  0  0  0  0  0  0  0
   36.6293   24.8790   -7.5140 H   0  0  0  0  0  0  0  0  0  0  0  0
   38.6792   23.9754   -7.1768 H   0  0  0  0  0  0  0  0  0  0  0  0
   38.4602   22.1895   -8.5536 H   0  0  0  0  0  0  0  0  0  0  0  0
   37.3502   23.2273  -10.2338 H   0  0  0  0  0  0  0  0  0  0  0  0
   38.4975   25.1806  -10.2013 H   0  0  0  0  0  0  0  0  0  0  0  0
   40.5628   24.3205   -9.8477 H   0  0  0  0  0  0  0  0  0  0  0  0
   40.3814   22.5133  -11.2011 H   0  0  0  0  0  0  0  0  0  0  0  0
   39.2562   23.5080  -12.8968 H   0  0  0  0  0  0  0  0  0  0  0  0
   40.3670   25.4821  -12.8895 H   0  0  0  0  0  0  0  0  0  0  0  0
   42.4474   24.6654  -12.5206 H   0  0  0  0  0  0  0  0  0  0  0  0
   42.3027   22.8373  -13.8505 H   0  0  0  0  0  0  0  0  0  0  0  0
   41.1632   23.7885  -15.5617 H   0  0  0  0  0  0  0  0  0  0  0  0
   42.2372   25.7830  -15.5782 H   0  0  0  0  0  0  0  0  0  0  0  0
   44.3317   25.0101  -15.1944 H   0  0  0  0  0  0  0  0  0  0  0  0
   44.2241   23.1623  -16.5004 H   0  0  0  0  0  0  0  0  0  0  0  0
   43.0711   24.0695  -18.2265 H   0  0  0  0  0  0  0  0  0  0  0  0
   44.1079   26.0832  -18.2674 H   0  0  0  0  0  0  0  0  0  0  0  0
   46.2155   25.3548  -17.8686 H   0  0  0  0  0  0  0  0  0  0  0  0
   46.1463   23.4881  -19.1500 H   0  0  0  0  0  0  0  0  0  0  0  0
   44.9808   24.3498  -20.8905 H   0  0  0  0  0  0  0  0  0  0  0  0
   45.9802   26.3820  -20.9554 H   0  0  0  0  0  0  0  0  0  0  0  0
   48.1031   25.7006  -20.5484 H   0  0  0  0  0  0  0  0  0  0  0  0
   48.0681   23.8143  -21.8055 H   0  0  0  0  0  0  0  0  0  0  0  0
   46.8903   24.6329  -23.5607 H   0  0  0  0  0  0  0  0  0  0  0  0
   47.8530   26.6829  -23.6503 H   0  0  0  0  0  0  0  0  0  0  0  0
   49.9854   26.0435  -23.2242 H   0  0  0  0  0  0  0  0  0  0  0  0
   49.9913   24.1414  -24.4567 H   0  0  0  0  0  0  0  0  0  0  0  0
   48.8024   24.9136  -26.2252 H   0  0  0  0  0  0  0  0  0  0  0  0
   49.7252   26.9804  -26.3419 H   0  0  0  0  0  0  0  0  0  0  0  0
   51.8683   26.3893  -25.9021 H   0  0  0  0  0  0  0  0  0  0  0  0
   51.9151   24.4713  -27.1089 H   0  0  0  0  0  0  0  0  0  0  0  0
   50.7208   25.1962  -28.8925 H   0  0  0  0  0  0  0  0  0  0  0  0
   51.6056   27.2773  -29.0339 H   0  0  0  0  0  0  0  0  0  0  0  0
   53.7611   26.7377  -28.5937 H   0  0  0  0  0  0  0  0  0  0  0  0
   53.8507   24.8040  -29.7721 H   0  0  0  0  0  0  0  0  0  0  0  0
   52.6457   25.4716  -31.5730 H   0  0  0  0  0  0  0  0  0  0  0  0
   53.4782   27.5717  -31.7535 H   0  0  0  0  0  0  0  0  0  0  0  0
   55.6459   27.1055  -31.2909 H   0  0  0  0  0  0  0  0  0  0  0  0
   55.8101   25.1565  -32.4358 H   0  0  0  0  0  0  0  0  0  0  0  0
   54.6127   25.7412  -34.2688 H   0  0  0  0  0  0  0  0  0  0  0  0
   55.4033   27.8643  -34.4975 H   0  0  0  0  0  0  0  0  0  0  0  0
   57.6086   27.4311  -34.0726 H   0  0  0  0  0  0  0  0  0  0  0  0
   57.8239   25.4921  -35.2380 H   0  0  0  0  0  0  0  0  0  0  0  0
   56.5384   26.0575  -37.0384 H   0  0  0  0  0  0  0  0  0  0  0  0
   58.8186   27.6195  -37.7242 H   0  0  0  0  0  0  0  0  0  0  0  0
   57.4166   28.1884  -37.1970 H   0  0  0  0  0  0  0  0  0  0  0  0
  1  2  1  0  0  0  0
  1 82  1  0  0  0  0
  2  3  1  0  0  0  0
  2 83  1  0  0  0  0
  3  4  1  0  0  0  0
  3 84  1  0  0  0  0
  4  5  1  0  0  0  0
  4 85  1  0  0  0  0
  5  6  1  0  0  0  0
  5 86  1  0  0  0  0
  6  7  1  0  0  0  0
  6 87  1  0  0  0  0
  7  8  1  0  0  0  0
  7 88  1  0  0  0  0
  8  9  1  0  0  0  0
  8 89  1  0  0  0  0
  9 10  1  0  0  0  0
  9 90  1  0  0  0  0
 10 11  1  0  0  0  0
 10 91  1  0  0  0  0
 11 12  1  0  0  0  0
 11 92  1  0  0  0  0
 12 13  1  0  0  0  0
 12 93  1  0  0  0  0
 13 14  1  0  0  0  0
 13 94  1  0  0  0  0
 14 15  1  0  0  0  0
 14 95  1  0  0  0  0
 15 16  1  0  0  0  0
 15 96  1  0  0  0  0
 16 17  1  0  0  0  0
 16 97  1  0  0  0  0
 17 18  1  0  0  0  0
 17 98  1  0  0  0  0
 18 19  1  0  0  0  0
 18 99  1  0  0  0  0
 19 20  1  0  0  0  0
 19100  1  0  0  0  0
 20 21  1  0  0  0  0
 20101  1  0  0  0  0
 21 22  1  0  0  0  0
 21102  1  0  0  0  0
 22 23  1  0  0  0  0
 22103  1  0  0  0  0
 23 24  1  0  0  0  0
 23104  1  0  0  0  0
 24 25  1  0  0  0  0
 24105  1  0  0  0  0
 25 26  1  0  0  0  0
 25106  1  0  0  0  0
 26 27  1  0  0  0  0
 26107  1  0  0  0  0
 27 28  1  0  0  0  0
 27108  1  0  0  0  0
 28 29  1  0  0  0  0
 28109  1  0  0  0  0
 29 30  1  0  0  0  0
 29110  1  0  0  0  0
 30 31  1  0  0  0  0
 30111  1  0  0  0  0
 31 32  1  0  0  0  0
 31112  1  0  0  0  0
 32 33  1  0  0  0  0
 32113  1  0  0  0  0
 33 34  1  0  0  0  0
 33114  1  0  0  0  0
 34 35  1  0  0  0  0
 34115  1  0  0  0  0
 35 36  1  0  0  0  0
 35116  1  0  0  0  0
 36 37  1  0  0  0  0
 36117  1  0  0  0  0
 37 38  1  0  0  0  0
 37118  1  0  0  0  0
 38 39  1  0  0  0  0
 38119  1  0  0  0  0
 39 40  1  0  0  0  0
 39120  1  0  0  0  0
 40 41  1  0  0  0  0
 40121  1  0  0  0  0
 41 42  1  0  0  0  0
 41122  1  0  0  0  0
 42 43  1  0  0  0  0
 42123  1  0  0  0  0
 43 44  1  0  0  0  0
 43124  1  0  0  0  0
 44 45  1  0  0  0  0
 44125  1  0  0  0  0
 45 46  1  0  0  0  0
 45126  1  0  0  0  0
 46 47  1  0  0  0  0
 46127  1  0  0  0  0
 47 48  1  0  0  0  0
 47128  1  0  0  0  0
 48 49  1  0  0  0  0
 48129  1  0  0  0  0
 49 50  1  0  0  0  0
 49130  1  0  0  0  0
 50 51  1  0  0  0  0
 50131  1  0  0  0  0
 51 52  1  0  0  0  0
 51132  1  0  0  0  0
 52 53  1  0  0  0  0
 52133  1  0  0  0  0
 53 54  1  0  0  0  0
 53134  1  0  0  0  0
 54 55  1  0  0  0  0
 54135  1  0  0  0  0
 55 56  1  0  0  0  0
 55136  1  0  0  0  0
 56 57  1  0  0  0  0
 56137  1  0  0  0  0
 57 58  1  0  0  0  0
 57138  1  0  0  0  0
 58 59  1  0  0  0  0
 58139  1  0  0  0  0
 59 60  1  0  0  0  0
 59140  1  0  0  0  0
 60 61  1  0  0  0  0
 60141  1  0  0  0  0
 61 62  1  0  0  0  0
 61142  1  0  0  0  0
 62 63  1  0  0  0  0
 62143  1  0  0  0  0
 63 64  1  0  0  0  0
 63144  1  0  0  0  0
 64 65  1  0  0  0  0
 64145  1  0  0  0  0
 65 66  1  0  0  0  0
 65146  1  0  0  0  0
 66 67  1  0  0  0  0
 66147  1  0  0  0  0
 67 68  1  0  0  0  0
 67148  1  0  0  0  0
 68 69  1  0  0  0  0
 68149  1  0  0  0  0
 69 70  1  0  0  0  0
 69150  1  0  0  0  0
 70 71  1  0  0  0  0
 70151  1  0  0  0  0
 71 72  1  0  0  0  0
 71152  1  0  0  0  0
 72 73  1  0  0  0  0
 72153  1  0  0  0  0
 73 74  1  0  0  0  0
 73154  1  0  0  0  0
 74 75  1  0  0  0  0
 74155  1  0  0  0  0
 75 76  1  0  0  0  0
 75156  1  0  0  0  0
 76 77  1  0  0  0  0
 76157  1  0  0  0  0
 77 78  1  0  0  0  0
 77158  1  0  0  0  0
 78 79  1  0  0  0  0
 78159  1  0  0  0  0
 79 80  1  0  0  0  0
 79160  1  0  0  0  0
 80 81  1  0  0  0  0
 80161  1  0  0  0  0
 81162  1  0  0  0  0
 81163  1  0  0  0  0
M  END
$$$$
