
 OpenBabel04232216503D

 54 55  0  0  0  0  0  0  0  0999 V2000
    1.3957   -1.6160    0.1423 C   0  0  0  0  0  0  0  0  0  0  0  0
    2.8822   -1.7303    0.0971 C   0  0  0  0  0  0  0  0  0  0  0  0
    3.4727   -0.4990   -0.0098 N   0  0  0  0  0  0  0  0  0  0  0  0
    4.7543   -0.7076    0.0584 C   0  0  0  0  0  0  0  0  0  0  0  0
    5.7720    0.4187    0.1086 C   0  0  0  0  0  0  0  0  0  0  0  0
    6.4114    0.8329   -1.2261 C   0  0  0  0  0  0  0  0  0  0  0  0
    5.5424    1.5563   -2.2699 C   0  0  0  0  0  0  0  0  0  0  0  0
    5.1064    2.9719   -1.8770 C   0  0  0  0  0  0  0  0  0  0  0  0
    4.4293    3.7015   -3.0352 C   0  0  0  0  0  0  0  0  0  0  0  0
    5.0254   -2.0736    0.2000 N   0  0  0  0  0  0  0  0  0  0  0  0
    6.3094   -2.5333    0.1595 C   0  0  0  0  0  0  0  0  0  0  0  0
    6.8881   -2.7291   -1.0360 C   0  0  0  0  0  0  0  0  0  0  0  0
    7.8534   -3.7873   -1.0934 C   0  0  0  0  0  0  0  0  0  0  0  0
    8.9946   -3.7143   -0.1171 C   0  0  0  0  0  0  0  0  0  0  0  0
    7.1963   -4.9111   -1.4747 C   0  0  0  0  0  0  0  0  0  0  0  0
    6.8892   -5.9458   -0.5603 C   0  0  0  0  0  0  0  0  0  0  0  0
    7.9833   -6.9531   -0.2969 C   0  0  0  0  0  0  0  0  0  0  0  0
    5.6842   -6.0997    0.0032 C   0  0  0  0  0  0  0  0  0  0  0  0
    4.3197   -5.5166    0.2544 C   0  0  0  0  0  0  0  0  0  0  0  0
    3.6412   -6.8298    0.8565 C   0  0  0  0  0  0  0  0  0  0  0  0
    3.5481   -4.3443    0.2765 C   0  0  0  0  0  0  0  0  0  0  0  0
    1.9757   -4.5724    0.4265 C   0  0  0  0  0  0  0  0  0  0  0  0
    1.4164   -5.8696    0.2874 O   0  0  0  0  0  0  0  0  0  0  0  0
    3.8157   -2.8179    0.1505 C   0  0  0  0  0  0  0  0  0  0  0  0
    1.1085   -0.5542    0.1541 H   0  0  0  0  0  0  0  0  0  0  0  0
    0.9786   -2.0479    1.0555 H   0  0  0  0  0  0  0  0  0  0  0  0
    0.9306   -2.0423   -0.7472 H   0  0  0  0  0  0  0  0  0  0  0  0
    6.5777    0.1409    0.8011 H   0  0  0  0  0  0  0  0  0  0  0  0
    5.2966    1.2981    0.5651 H   0  0  0  0  0  0  0  0  0  0  0  0
    6.8438   -0.0478   -1.7092 H   0  0  0  0  0  0  0  0  0  0  0  0
    7.2602    1.4917   -0.9950 H   0  0  0  0  0  0  0  0  0  0  0  0
    4.6705    0.9493   -2.5283 H   0  0  0  0  0  0  0  0  0  0  0  0
    6.1466    1.6391   -3.1855 H   0  0  0  0  0  0  0  0  0  0  0  0
    5.9758    3.5624   -1.5626 H   0  0  0  0  0  0  0  0  0  0  0  0
    4.4139    2.9304   -1.0310 H   0  0  0  0  0  0  0  0  0  0  0  0
    5.1210    3.8483   -3.8734 H   0  0  0  0  0  0  0  0  0  0  0  0
    4.0860    4.6924   -2.7156 H   0  0  0  0  0  0  0  0  0  0  0  0
    3.5603    3.1480   -3.4049 H   0  0  0  0  0  0  0  0  0  0  0  0
    6.7220   -2.8307    1.1172 H   0  0  0  0  0  0  0  0  0  0  0  0
    6.3041   -2.5208   -1.9324 H   0  0  0  0  0  0  0  0  0  0  0  0
    9.1992   -2.6767    0.1678 H   0  0  0  0  0  0  0  0  0  0  0  0
    9.9103   -4.1070   -0.5663 H   0  0  0  0  0  0  0  0  0  0  0  0
    8.7901   -4.2615    0.8087 H   0  0  0  0  0  0  0  0  0  0  0  0
    6.3354   -4.7817   -2.1574 H   0  0  0  0  0  0  0  0  0  0  0  0
    8.9638   -6.4921   -0.1786 H   0  0  0  0  0  0  0  0  0  0  0  0
    8.0482   -7.6893   -1.1332 H   0  0  0  0  0  0  0  0  0  0  0  0
    7.8087   -7.5207    0.6342 H   0  0  0  0  0  0  0  0  0  0  0  0
    5.6172   -7.1864    0.0842 H   0  0  0  0  0  0  0  0  0  0  0  0
    4.3506   -7.4909    1.3833 H   0  0  0  0  0  0  0  0  0  0  0  0
    3.1972   -7.4439    0.0588 H   0  0  0  0  0  0  0  0  0  0  0  0
    2.9362   -6.6297    1.6664 H   0  0  0  0  0  0  0  0  0  0  0  0
    1.4936   -4.0127   -0.3737 H   0  0  0  0  0  0  0  0  0  0  0  0
    1.6592   -4.1863    1.4006 H   0  0  0  0  0  0  0  0  0  0  0  0
    0.9397   -5.9013   -0.5570 H   0  0  0  0  0  0  0  0  0  0  0  0
  1  2  1  0  0  0  0
  1 25  1  0  0  0  0
  1 26  1  0  0  0  0
  1 27  1  0  0  0  0
  2  3  1  0  0  0  0
  2 24  2  0  0  0  0
  3  4  2  0  0  0  0
  4  5  1  0  0  0  0
  4 10  1  0  0  0  0
  5  6  1  0  0  0  0
  5 28  1  0  0  0  0
  5 29  1  0  0  0  0
  6  7  1  0  0  0  0
  6 30  1  0  0  0  0
  6 31  1  0  0  0  0
  7  8  1  0  0  0  0
  7 32  1  0  0  0  0
  7 33  1  0  0  0  0
  8  9  1  0  0  0  0
  8 34  1  0  0  0  0
  8 35  1  0  0  0  0
  9 36  1  0  0  0  0
  9 37  1  0  0  0  0
  9 38  1  0  0  0  0
 10 11  1  0  0  0  0
 10 24  1  0  0  0  0
 11 12  2  0  0  0  0
 11 39  1  0  0  0  0
 12 13  1  0  0  0  0
 12 40  1  0  0  0  0
 13 14  1  0  0  0  0
 13 15  2  0  0  0  0
 14 41  1  0  0  0  0
 14 42  1  0  0  0  0
 14 43  1  0  0  0  0
 15 16  1  0  0  0  0
 15 44  1  0  0  0  0
 16 17  1  0  0  0  0
 16 18  2  0  0  0  0
 17 45  1  0  0  0  0
 17 46  1  0  0  0  0
 17 47  1  0  0  0  0
 18 19  1  0  0  0  0
 18 48  1  0  0  0  0
 19 20  1  0  0  0  0
 19 21  2  0  0  0  0
 20 49  1  0  0  0  0
 20 50  1  0  0  0  0
 20 51  1  0  0  0  0
 21 22  1  0  0  0  0
 21 24  1  0  0  0  0
 22 23  1  0  0  0  0
 22 52  1  0  0  0  0
 22 53  1  0  0  0  0
 23 54  1  0  0  0  0
M  END
$$$$
