
 OpenBabel04232216393D

 30 30  0  0  0  0  0  0  0  0999 V2000
    1.1917    0.7992    0.5358 C   0  0  0  0  0  0  0  0  0  0  0  0
    2.1652    0.1320    1.1667 C   0  0  0  0  0  0  0  0  0  0  0  0
    2.9142   -1.0246    0.5571 C   0  0  0  0  0  0  0  0  0  0  0  0
    4.4536   -0.8792    0.6250 C   0  0  0  0  0  0  0  0  0  0  0  0
    5.1087   -2.1332    0.0281 C   0  0  0  0  0  0  0  0  0  0  0  0
    6.6364   -2.1960    0.1286 C   0  0  0  0  0  0  0  0  0  0  0  0
    7.1852   -1.8944    1.5241 C   0  0  0  0  0  0  0  0  0  0  0  0
    7.8052   -0.5037    1.6876 C   0  0  0  0  0  0  0  0  0  0  0  0
    6.8759    0.7142    1.6246 C   0  0  0  0  0  0  0  0  0  0  0  0
    6.2628    1.0109    0.2521 C   0  0  0  0  0  0  0  0  0  0  0  0
    4.9543    0.3560   -0.0711 C   0  0  0  0  0  3  0  0  0  0  0  0
    0.6700    1.6176    1.0229 H   0  0  0  0  0  0  0  0  0  0  0  0
    0.8863    0.5419   -0.4739 H   0  0  0  0  0  0  0  0  0  0  0  0
    2.4289    0.4151    2.1838 H   0  0  0  0  0  0  0  0  0  0  0  0
    2.5946   -1.1871   -0.4798 H   0  0  0  0  0  0  0  0  0  0  0  0
    2.6261   -1.9238    1.1180 H   0  0  0  0  0  0  0  0  0  0  0  0
    4.6940   -0.8153    1.6920 H   0  0  0  0  0  0  0  0  0  0  0  0
    4.8304   -2.2310   -1.0306 H   0  0  0  0  0  0  0  0  0  0  0  0
    4.6984   -3.0187    0.5308 H   0  0  0  0  0  0  0  0  0  0  0  0
    7.1024   -1.5527   -0.6259 H   0  0  0  0  0  0  0  0  0  0  0  0
    6.9301   -3.2180   -0.1445 H   0  0  0  0  0  0  0  0  0  0  0  0
    7.9883   -2.6176    1.7201 H   0  0  0  0  0  0  0  0  0  0  0  0
    6.4344   -2.0777    2.3009 H   0  0  0  0  0  0  0  0  0  0  0  0
    8.6119   -0.3801    0.9546 H   0  0  0  0  0  0  0  0  0  0  0  0
    8.2914   -0.4846    2.6726 H   0  0  0  0  0  0  0  0  0  0  0  0
    7.4929    1.5830    1.8918 H   0  0  0  0  0  0  0  0  0  0  0  0
    6.1081    0.6560    2.4042 H   0  0  0  0  0  0  0  0  0  0  0  0
    6.9855    0.7861   -0.5405 H   0  0  0  0  0  0  0  0  0  0  0  0
    6.0857    2.0925    0.1941 H   0  0  0  0  0  0  0  0  0  0  0  0
    4.4663    0.6580   -0.9944 H   0  0  0  0  0  0  0  0  0  0  0  0
  1  2  2  0  0  0  0
  1 12  1  0  0  0  0
  1 13  1  0  0  0  0
  2  3  1  0  0  0  0
  2 14  1  0  0  0  0
  3  4  1  0  0  0  0
  3 15  1  0  0  0  0
  3 16  1  0  0  0  0
  4  5  1  0  0  0  0
  4 11  1  0  0  0  0
  4 17  1  0  0  0  0
  5  6  1  0  0  0  0
  5 18  1  0  0  0  0
  5 19  1  0  0  0  0
  6  7  1  0  0  0  0
  6 20  1  0  0  0  0
  6 21  1  0  0  0  0
  7  8  1  0  0  0  0
  7 22  1  0  0  0  0
  7 23  1  0  0  0  0
  8  9  1  0  0  0  0
  8 24  1  0  0  0  0
  8 25  1  0  0  0  0
  9 10  1  0  0  0  0
  9 26  1  0  0  0  0
  9 27  1  0  0  0  0
 10 11  1  0  0  0  0
 10 28  1  0  0  0  0
 10 29  1  0  0  0  0
 11 30  1  0  0  0  0
M  END
$$$$
