
 OpenBabel04232216513D

 47 48  0  0  0  0  0  0  0  0999 V2000
    2.7572    1.7618    2.7896 C   0  0  0  0  0  0  0  0  0  0  0  0
    4.2132    1.8253    3.1447 C   0  0  0  0  0  0  0  0  0  0  0  0
    5.1362    1.1682    2.4320 N   0  0  0  0  0  0  0  0  0  0  0  0
    4.9635    1.1973    0.9849 N   0  0  0  0  0  0  0  0  0  0  0  0
    5.4046    0.2162    0.0498 C   0  0  0  0  0  0  0  0  0  0  0  0
    4.5754   -0.6541   -0.5987 N   0  0  0  0  0  0  0  0  0  0  0  0
    6.6944    0.5728   -0.3292 C   0  0  0  0  0  0  0  0  0  0  0  0
    7.7086   -0.1361   -1.1493 C   0  0  0  0  0  0  0  0  0  0  0  0
    6.7671    1.9488   -0.0204 C   0  0  0  0  0  0  0  0  0  0  0  0
    5.4802    2.3408    0.3413 C   0  0  0  0  0  0  0  0  0  0  0  0
    4.9366    3.6010    0.6526 C   0  0  0  0  0  0  0  0  0  0  0  0
    5.6703    4.2628    1.5394 C   0  0  0  0  0  0  0  0  0  0  0  0
    5.3183    5.3068    2.4666 C   0  0  0  0  0  0  0  0  0  0  0  0
    3.8355    5.4970    2.7549 C   0  0  0  0  0  0  0  0  0  0  0  0
    6.3288    5.6162    3.3228 C   0  0  0  0  0  0  0  0  0  0  0  0
    7.8215    5.3695    3.0794 C   0  0  0  0  0  0  0  0  0  0  0  0
    6.0044    5.7397    4.7452 C   0  0  0  0  0  0  0  0  0  0  0  0
    6.1843    4.5589    5.3963 C   0  0  0  0  0  0  0  0  0  0  0  0
    7.2839    4.6477    6.4292 C   0  0  0  0  0  0  0  0  0  0  0  0
    5.0495    3.5587    5.4628 C   0  0  0  0  0  0  0  0  0  0  0  0
    4.3087    3.7941    6.7672 C   0  0  0  0  0  0  0  0  0  0  0  0
    4.6496    2.7679    4.4365 C   0  0  0  0  0  0  0  0  0  0  0  0
    2.2697    2.7450    2.8498 H   0  0  0  0  0  0  0  0  0  0  0  0
    2.2319    1.0675    3.4543 H   0  0  0  0  0  0  0  0  0  0  0  0
    2.5922    1.3815    1.7687 H   0  0  0  0  0  0  0  0  0  0  0  0
    3.6249   -0.3255   -0.7667 H   0  0  0  0  0  0  0  0  0  0  0  0
    4.9421   -1.0076   -1.4851 H   0  0  0  0  0  0  0  0  0  0  0  0
    7.2475   -0.7601   -1.9192 H   0  0  0  0  0  0  0  0  0  0  0  0
    8.3563   -0.7552   -0.5228 H   0  0  0  0  0  0  0  0  0  0  0  0
    8.3474    0.5924   -1.6664 H   0  0  0  0  0  0  0  0  0  0  0  0
    7.6057    2.6103   -0.1901 H   0  0  0  0  0  0  0  0  0  0  0  0
    3.9326    3.8674    0.3465 H   0  0  0  0  0  0  0  0  0  0  0  0
    6.5993    3.7544    1.8164 H   0  0  0  0  0  0  0  0  0  0  0  0
    3.1842    4.8742    2.1372 H   0  0  0  0  0  0  0  0  0  0  0  0
    3.5483    6.5390    2.5975 H   0  0  0  0  0  0  0  0  0  0  0  0
    3.5600    5.2287    3.7806 H   0  0  0  0  0  0  0  0  0  0  0  0
    8.0681    5.1982    2.0259 H   0  0  0  0  0  0  0  0  0  0  0  0
    8.1754    4.4864    3.6282 H   0  0  0  0  0  0  0  0  0  0  0  0
    8.4145    6.2301    3.3998 H   0  0  0  0  0  0  0  0  0  0  0  0
    5.0243    6.2082    4.8433 H   0  0  0  0  0  0  0  0  0  0  0  0
    8.2001    4.1696    6.0692 H   0  0  0  0  0  0  0  0  0  0  0  0
    7.0080    4.2326    7.3993 H   0  0  0  0  0  0  0  0  0  0  0  0
    7.5461    5.7038    6.6143 H   0  0  0  0  0  0  0  0  0  0  0  0
    3.2383    3.6074    6.6887 H   0  0  0  0  0  0  0  0  0  0  0  0
    4.4126    4.8453    7.0852 H   0  0  0  0  0  0  0  0  0  0  0  0
    4.7372    3.1923    7.5766 H   0  0  0  0  0  0  0  0  0  0  0  0
    5.6225    2.8098    3.9007 H   0  0  0  0  0  0  0  0  0  0  0  0
  1  2  1  0  0  0  0
  1 23  1  0  0  0  0
  1 24  1  0  0  0  0
  1 25  1  0  0  0  0
  2  3  2  3  0  0  0
  2 22  1  0  0  0  0
  3  4  1  0  0  0  0
  4  5  1  0  0  0  0
  4 10  1  0  0  0  0
  5  6  1  0  0  0  0
  5  7  2  0  0  0  0
  6 26  1  0  0  0  0
  6 27  1  0  0  0  0
  7  8  1  0  0  0  0
  7  9  1  0  0  0  0
  8 28  1  0  0  0  0
  8 29  1  0  0  0  0
  8 30  1  0  0  0  0
  9 10  2  0  0  0  0
  9 31  1  0  0  0  0
 10 11  1  0  0  0  0
 11 12  2  3  0  0  0
 11 32  1  0  0  0  0
 12 13  1  0  0  0  0
 12 33  1  0  0  0  0
 13 14  1  0  0  0  0
 13 15  2  3  0  0  0
 14 34  1  0  0  0  0
 14 35  1  0  0  0  0
 14 36  1  0  0  0  0
 15 16  1  0  0  0  0
 15 17  1  0  0  0  0
 16 37  1  0  0  0  0
 16 38  1  0  0  0  0
 16 39  1  0  0  0  0
 17 18  2  3  0  0  0
 17 40  1  0  0  0  0
 18 19  1  0  0  0  0
 18 20  1  0  0  0  0
 19 41  1  0  0  0  0
 19 42  1  0  0  0  0
 19 43  1  0  0  0  0
 20 21  1  0  0  0  0
 20 22  2  3  0  0  0
 21 44  1  0  0  0  0
 21 45  1  0  0  0  0
 21 46  1  0  0  0  0
 22 47  1  0  0  0  0
M  END
$$$$
