
 OpenBabel04232216483D

 54 55  0  0  0  0  0  0  0  0999 V2000
    6.0091    1.8491    2.0908 C   0  0  0  0  0  0  0  0  0  0  0  0
    6.6261    0.8576    3.1137 C   0  0  0  0  0  0  0  0  0  0  0  0
    5.5793   -0.1593    2.9963 C   0  0  0  0  0  0  0  0  0  0  0  0
    5.4605   -1.1023    2.0356 C   0  0  0  0  0  0  0  0  0  0  0  0
    5.1055   -2.4426    2.5587 C   0  0  0  0  0  0  0  0  0  0  0  0
    4.2842   -2.3715    3.8464 C   0  0  0  0  0  0  0  0  0  0  0  0
    3.8625   -3.5899    4.6353 C   0  0  0  0  0  0  0  0  0  0  0  0
    6.1387   -3.2619    2.2740 C   0  0  0  0  0  0  0  0  0  0  0  0
    7.1471   -3.5388    3.2769 C   0  0  0  0  0  0  0  0  0  0  0  0
    8.4439   -3.6821    2.9775 C   0  0  0  0  0  0  0  0  0  0  0  0
    9.2575   -4.3938    3.8529 N   0  0  0  0  0  0  0  0  0  0  0  0
   10.3800   -3.7765    4.3671 C   0  0  0  0  0  0  0  0  0  0  0  0
   11.5493   -3.8663    3.9626 O   0  0  0  0  0  0  0  0  0  0  0  0
    9.8663   -2.8167    5.3483 C   0  0  0  0  0  0  0  0  0  0  0  0
   10.0275   -1.5843    4.8604 C   0  0  0  0  0  0  0  0  0  0  0  0
    9.5804   -0.3731    5.4867 C   0  0  0  0  0  0  0  0  0  0  0  0
   10.6948   -0.0616    6.6797 C   0  0  0  0  0  0  0  0  0  0  0  0
   11.4509   -1.1669    7.6051 C   0  0  0  0  0  0  0  0  0  0  0  0
   11.2011   -1.9794    8.6676 C   0  0  0  0  0  0  0  0  0  0  0  0
    9.9403   -2.4941    9.4536 C   0  0  0  0  0  0  0  0  0  0  0  0
    8.5344   -3.2110    9.0524 C   0  0  0  0  0  0  0  0  0  0  0  0
    8.0936   -3.1524    7.5500 C   0  0  0  0  0  0  0  0  0  0  0  0
    9.3610   -3.2592    6.6882 C   0  0  0  0  0  0  0  0  0  0  0  0
    8.9139    0.5093    4.6190 C   0  0  0  0  0  0  0  0  0  0  0  0
    7.9220    0.3961    3.3243 C   0  0  0  0  0  0  0  0  0  0  0  0
    4.9315    2.0141    2.3269 H   0  0  0  0  0  0  0  0  0  0  0  0
    5.9919    1.4598    1.0590 H   0  0  0  0  0  0  0  0  0  0  0  0
    6.4420    2.8460    2.1033 H   0  0  0  0  0  0  0  0  0  0  0  0
    4.7507   -0.0190    3.6892 H   0  0  0  0  0  0  0  0  0  0  0  0
    6.1277   -1.0998    1.1673 H   0  0  0  0  0  0  0  0  0  0  0  0
    3.3653   -1.8066    3.6191 H   0  0  0  0  0  0  0  0  0  0  0  0
    4.8576   -1.7894    4.5785 H   0  0  0  0  0  0  0  0  0  0  0  0
    2.9158   -3.9900    4.2671 H   0  0  0  0  0  0  0  0  0  0  0  0
    3.6897   -3.2621    5.6707 H   0  0  0  0  0  0  0  0  0  0  0  0
    4.6217   -4.3697    4.6556 H   0  0  0  0  0  0  0  0  0  0  0  0
    6.5820   -3.2484    1.2738 H   0  0  0  0  0  0  0  0  0  0  0  0
    6.8234   -3.5873    4.3162 H   0  0  0  0  0  0  0  0  0  0  0  0
    8.9115   -3.3206    2.0596 H   0  0  0  0  0  0  0  0  0  0  0  0
    8.6849   -4.7114    4.6205 H   0  0  0  0  0  0  0  0  0  0  0  0
   10.6324   -1.4245    3.9587 H   0  0  0  0  0  0  0  0  0  0  0  0
   10.3613    0.7431    7.3413 H   0  0  0  0  0  0  0  0  0  0  0  0
   11.5593    0.3437    6.1258 H   0  0  0  0  0  0  0  0  0  0  0  0
   12.4854   -1.2920    7.2562 H   0  0  0  0  0  0  0  0  0  0  0  0
   12.1006   -2.5080    9.0626 H   0  0  0  0  0  0  0  0  0  0  0  0
   10.3735   -3.4823    9.2601 H   0  0  0  0  0  0  0  0  0  0  0  0
    9.4841   -1.5307    9.2823 H   0  0  0  0  0  0  0  0  0  0  0  0
    7.7585   -2.7890    9.7085 H   0  0  0  0  0  0  0  0  0  0  0  0
    8.5727   -4.2691    9.3726 H   0  0  0  0  0  0  0  0  0  0  0  0
    7.5659   -2.2035    7.4004 H   0  0  0  0  0  0  0  0  0  0  0  0
    7.3849   -3.9618    7.3473 H   0  0  0  0  0  0  0  0  0  0  0  0
    9.9300   -4.1398    7.0054 H   0  0  0  0  0  0  0  0  0  0  0  0
    9.7712   -2.4159    7.1708 H   0  0  0  0  0  0  0  0  0  0  0  0
    9.6960    1.1717    4.2066 H   0  0  0  0  0  0  0  0  0  0  0  0
    8.5570    0.7027    2.4809 H   0  0  0  0  0  0  0  0  0  0  0  0
  1  2  1  0  0  0  0
  1 26  1  0  0  0  0
  1 27  1  0  0  0  0
  1 28  1  0  0  0  0
  2  3  1  0  0  0  0
  2 25  2  0  0  0  0
  3  4  2  0  0  0  0
  3 29  1  0  0  0  0
  4  5  1  0  0  0  0
  4 30  1  0  0  0  0
  5  6  1  0  0  0  0
  5  8  2  0  0  0  0
  6  7  1  0  0  0  0
  6 31  1  0  0  0  0
  6 32  1  0  0  0  0
  7 33  1  0  0  0  0
  7 34  1  0  0  0  0
  7 35  1  0  0  0  0
  8  9  1  0  0  0  0
  8 36  1  0  0  0  0
  9 10  2  0  0  0  0
  9 37  1  0  0  0  0
 10 11  1  0  0  0  0
 10 38  1  0  0  0  0
 11 12  1  0  0  0  0
 11 39  1  0  0  0  0
 12 13  2  0  0  0  0
 12 14  1  0  0  0  0
 14 15  2  0  0  0  0
 14 23  1  0  0  0  0
 15 16  1  0  0  0  0
 15 40  1  0  0  0  0
 16 17  1  0  0  0  0
 16 24  2  0  0  0  0
 17 18  1  0  0  0  0
 17 41  1  0  0  0  0
 17 42  1  0  0  0  0
 18 19  2  3  0  0  0
 18 43  1  0  0  0  0
 19 20  1  0  0  0  0
 19 44  1  0  0  0  0
 20 21  1  0  0  0  0
 20 45  1  0  0  0  0
 20 46  1  0  0  0  0
 21 22  1  0  0  0  0
 21 47  1  0  0  0  0
 21 48  1  0  0  0  0
 22 23  1  0  0  0  0
 22 49  1  0  0  0  0
 22 50  1  0  0  0  0
 23 51  1  0  0  0  0
 23 52  1  0  0  0  0
 24 25  1  0  0  0  0
 24 53  1  0  0  0  0
 25 54  1  0  0  0  0
M  END
$$$$
