
 OpenBabel04232216393D

 57 57  0  0  0  0  0  0  0  0999 V2000
   10.7391   -1.6585    1.0562 C   0  0  0  0  0  0  0  0  0  0  0  0
   10.6017   -1.7130   -0.2997 C   0  0  0  0  0  0  0  0  0  0  0  0
    8.8510   -1.7002   -0.5965 C   0  0  0  0  0  0  0  0  0  0  0  0
    7.4321   -0.7012   -1.0097 C   0  0  0  0  0  0  0  0  0  0  0  0
    6.2435   -1.3226   -1.9716 C   0  0  0  0  0  0  0  0  0  0  0  0
    7.0246   -2.0623   -2.9914 C   0  0  0  0  0  0  0  0  0  0  0  0
    7.3584   -3.3838   -3.6277 C   0  0  0  0  0  0  0  0  0  0  0  0
    8.8323   -3.4958   -3.2011 C   0  0  0  0  0  0  0  0  0  0  0  0
    9.6890   -4.3737   -4.0083 C   0  0  0  0  0  0  0  0  0  0  0  0
   11.0980   -4.0465   -3.5540 C   0  0  0  0  0  0  0  0  0  0  0  0
   12.0055   -4.8894   -4.3758 C   0  0  0  0  0  0  0  0  0  0  0  0
   13.2836   -4.2866   -4.4873 N   0  0  0  0  0  0  0  0  0  0  0  0
   14.1681   -4.9895   -5.2456 C   0  0  0  0  0  0  0  0  0  0  0  0
   14.1008   -6.1693   -5.5574 O   0  0  0  0  0  0  0  0  0  0  0  0
   15.2874   -4.1193   -5.5746 C   0  0  0  0  0  0  0  0  0  0  0  0
   16.4173   -4.6913   -5.9784 C   0  0  0  0  0  0  0  0  0  0  0  0
   17.6243   -4.0008   -5.5494 C   0  0  0  0  0  0  0  0  0  0  0  0
   18.3218   -4.7178   -4.6558 C   0  0  0  0  0  0  0  0  0  0  0  0
   18.0653   -4.2931   -3.2605 C   0  0  0  0  0  0  0  0  0  0  0  0
   19.0449   -3.8611   -2.6453 O   0  0  0  0  0  0  0  0  0  0  0  0
   16.6604   -4.7250   -2.5133 C   0  0  0  0  0  0  0  0  0  0  0  0
   15.1223   -3.9254   -2.0557 C   0  0  0  0  0  0  0  0  0  0  0  0
   13.9609   -2.6328   -1.4726 C   0  0  0  0  0  0  0  0  0  0  0  0
   12.1008   -2.3715   -1.1530 C   0  0  0  0  0  0  0  0  0  0  0  0
   10.1466   -2.4544    1.5587 H   0  0  0  0  0  0  0  0  0  0  0  0
   10.2001   -0.8214    1.5347 H   0  0  0  0  0  0  0  0  0  0  0  0
    8.5740   -1.5008    0.4534 H   0  0  0  0  0  0  0  0  0  0  0  0
    8.5482   -2.7494   -0.6184 H   0  0  0  0  0  0  0  0  0  0  0  0
    6.8751   -0.5111   -0.0761 H   0  0  0  0  0  0  0  0  0  0  0  0
    7.7259    0.2716   -1.4152 H   0  0  0  0  0  0  0  0  0  0  0  0
    5.6371   -0.5416   -2.4577 H   0  0  0  0  0  0  0  0  0  0  0  0
    5.5315   -1.9665   -1.4327 H   0  0  0  0  0  0  0  0  0  0  0  0
    7.4106   -2.5307   -2.0979 H   0  0  0  0  0  0  0  0  0  0  0  0
    7.6897   -1.3102   -3.4285 H   0  0  0  0  0  0  0  0  0  0  0  0
    7.2526   -3.3373   -4.7124 H   0  0  0  0  0  0  0  0  0  0  0  0
    6.7821   -4.2319   -3.2410 H   0  0  0  0  0  0  0  0  0  0  0  0
    8.8976   -3.8653   -2.1712 H   0  0  0  0  0  0  0  0  0  0  0  0
    9.3042   -2.4950   -3.2098 H   0  0  0  0  0  0  0  0  0  0  0  0
    9.5693   -4.1463   -5.0682 H   0  0  0  0  0  0  0  0  0  0  0  0
    9.4585   -5.4195   -3.8169 H   0  0  0  0  0  0  0  0  0  0  0  0
   11.2372   -4.2570   -2.4839 H   0  0  0  0  0  0  0  0  0  0  0  0
   11.3092   -2.9728   -3.7030 H   0  0  0  0  0  0  0  0  0  0  0  0
   11.6326   -4.9509   -5.3980 H   0  0  0  0  0  0  0  0  0  0  0  0
   12.0696   -5.8941   -3.9537 H   0  0  0  0  0  0  0  0  0  0  0  0
   13.3566   -3.2849   -4.3788 H   0  0  0  0  0  0  0  0  0  0  0  0
   15.2783   -3.1110   -5.1590 H   0  0  0  0  0  0  0  0  0  0  0  0
   16.4373   -5.7689   -6.1850 H   0  0  0  0  0  0  0  0  0  0  0  0
   17.4925   -2.9430   -5.3760 H   0  0  0  0  0  0  0  0  0  0  0  0
   18.5292   -5.7778   -4.8674 H   0  0  0  0  0  0  0  0  0  0  0  0
   16.3587   -5.6300   -3.0657 H   0  0  0  0  0  0  0  0  0  0  0  0
   17.0841   -5.1340   -1.5782 H   0  0  0  0  0  0  0  0  0  0  0  0
   15.2997   -4.2505   -1.0158 H   0  0  0  0  0  0  0  0  0  0  0  0
   15.7089   -3.0548   -2.4028 H   0  0  0  0  0  0  0  0  0  0  0  0
   14.4857   -2.1924   -0.6106 H   0  0  0  0  0  0  0  0  0  0  0  0
   14.0620   -1.9323   -2.3117 H   0  0  0  0  0  0  0  0  0  0  0  0
   11.9777   -1.6865   -2.0068 H   0  0  0  0  0  0  0  0  0  0  0  0
   12.5684   -1.8001   -0.3227 H   0  0  0  0  0  0  0  0  0  0  0  0
  1  2  2  0  0  0  0
  1 25  1  0  0  0  0
  1 26  1  0  0  0  0
  2  3  1  0  0  0  0
  2 24  1  0  0  0  0
  3  4  1  0  0  0  0
  3 27  1  0  0  0  0
  3 28  1  0  0  0  0
  4  5  1  0  0  0  0
  4 29  1  0  0  0  0
  4 30  1  0  0  0  0
  5  6  1  0  0  0  0
  5 31  1  0  0  0  0
  5 32  1  0  0  0  0
  6  7  1  0  0  0  0
  6 33  1  0  0  0  0
  6 34  1  0  0  0  0
  7  8  1  0  0  0  0
  7 35  1  0  0  0  0
  7 36  1  0  0  0  0
  8  9  1  0  0  0  0
  8 37  1  0  0  0  0
  8 38  1  0  0  0  0
  9 10  1  0  0  0  0
  9 39  1  0  0  0  0
  9 40  1  0  0  0  0
 10 11  1  0  0  0  0
 10 41  1  0  0  0  0
 10 42  1  0  0  0  0
 11 12  1  0  0  0  0
 11 43  1  0  0  0  0
 11 44  1  0  0  0  0
 12 13  1  0  0  0  0
 12 45  1  0  0  0  0
 13 14  2  0  0  0  0
 13 15  1  0  0  0  0
 15 16  2  3  0  0  0
 15 46  1  0  0  0  0
 16 17  1  0  0  0  0
 16 47  1  0  0  0  0
 17 18  2  3  0  0  0
 17 48  1  0  0  0  0
 18 19  1  0  0  0  0
 18 49  1  0  0  0  0
 19 20  2  0  0  0  0
 19 21  1  0  0  0  0
 21 22  1  0  0  0  0
 21 50  1  0  0  0  0
 21 51  1  0  0  0  0
 22 23  1  0  0  0  0
 22 52  1  0  0  0  0
 22 53  1  0  0  0  0
 23 24  1  0  0  0  0
 23 54  1  0  0  0  0
 23 55  1  0  0  0  0
 24 56  1  0  0  0  0
 24 57  1  0  0  0  0
M  END
$$$$
