
 OpenBabel04232216393D

 70 71  0  0  1  0  0  0  0  0999 V2000
    1.5023    0.0711    0.9362 C   0  0  0  0  0  0  0  0  0  0  0  0
    2.5170    0.9041    0.6801 C   0  0  0  0  0  0  0  0  0  0  0  0
    3.3610    0.8988   -0.5793 C   0  0  0  0  0  0  0  0  0  0  0  0
    4.9229    0.7785   -0.4399 C   0  0  3  0  0  0  0  0  0  0  0  0
    5.4976    1.9603    0.3782 C   0  0  0  0  0  0  0  0  0  0  0  0
    5.9745    3.0889   -0.5388 C   0  0  0  0  0  0  0  0  0  0  0  0
    6.4984    4.2971    0.2441 C   0  0  0  0  0  0  0  0  0  0  0  0
    7.9370    4.6938   -0.1187 C   0  0  0  0  0  0  0  0  0  0  0  0
    8.9899    3.8898    0.6525 C   0  0  0  0  0  0  0  0  0  0  0  0
    9.5739    2.7130   -0.1351 C   0  0  0  0  0  0  0  0  0  0  0  0
    9.8553    1.5377    0.8026 C   0  0  0  0  0  0  0  0  0  0  0  0
   10.3526    0.3051    0.0582 C   0  0  0  0  0  0  0  0  0  0  0  0
    9.9680   -1.0373    0.6492 C   0  0  0  0  0  0  0  0  0  0  0  0
   10.4985   -2.0759    0.2280 O   0  0  0  0  0  0  0  0  0  0  0  0
    8.9438   -1.1524    1.7339 C   0  0  0  0  0  0  0  0  0  0  0  0
    7.5825   -1.3275    1.4195 C   0  0  0  0  0  0  0  0  0  0  0  0
    6.6052   -1.6748    2.4155 N   0  0  0  0  0  0  0  0  0  0  0  0
    6.6709   -0.8599    3.5883 C   0  0  0  0  0  0  0  0  0  0  0  0
    6.2447   -0.8819    5.0329 C   0  0  0  0  0  0  0  0  0  0  0  0
    7.6121   -0.4827    5.6587 C   0  0  0  0  0  0  0  0  0  0  0  0
    8.1089   -0.5086    7.0425 C   0  0  0  0  0  0  0  0  0  0  0  0
    9.6797   -0.6351    6.9553 C   0  0  0  0  0  0  0  0  0  0  0  0
   10.6995   -0.4829    5.6961 C   0  0  0  0  0  0  0  0  0  0  0  0
   10.7713   -0.7280    4.0620 C   0  0  0  0  0  0  0  0  0  0  0  0
    9.5247   -1.1346    3.2169 C   0  0  0  0  0  0  0  0  0  0  0  0
    6.8742   -1.0524    0.0568 C   0  0  0  0  0  0  0  0  0  0  0  0
    5.3420   -0.5876    0.1557 C   0  0  0  0  0  0  0  0  0  0  0  0
    0.9023    0.1855    1.8382 H   0  0  0  0  0  0  0  0  0  0  0  0
    1.2113   -0.7212    0.2513 H   0  0  0  0  0  0  0  0  0  0  0  0
    2.6940    1.7070    1.3952 H   0  0  0  0  0  0  0  0  0  0  0  0
    3.1380    1.8383   -1.1016 H   0  0  0  0  0  0  0  0  0  0  0  0
    3.0069    0.0996   -1.2434 H   0  0  0  0  0  0  0  0  0  0  0  0
    5.3225    0.8143   -1.4609 H   0  0  0  0  0  0  0  0  0  0  0  0
    6.3335    1.6299    1.0017 H   0  0  0  0  0  0  0  0  0  0  0  0
    4.7492    2.3671    1.0701 H   0  0  0  0  0  0  0  0  0  0  0  0
    5.1395    3.4183   -1.1698 H   0  0  0  0  0  0  0  0  0  0  0  0
    6.7356    2.6954   -1.2182 H   0  0  0  0  0  0  0  0  0  0  0  0
    6.4108    4.1433    1.3272 H   0  0  0  0  0  0  0  0  0  0  0  0
    5.8475    5.1508    0.0149 H   0  0  0  0  0  0  0  0  0  0  0  0
    8.0604    5.7479    0.1581 H   0  0  0  0  0  0  0  0  0  0  0  0
    8.0988    4.6379   -1.2014 H   0  0  0  0  0  0  0  0  0  0  0  0
    8.5693    3.5522    1.6071 H   0  0  0  0  0  0  0  0  0  0  0  0
    9.8194    4.5589    0.9139 H   0  0  0  0  0  0  0  0  0  0  0  0
   10.4993    3.0288   -0.6341 H   0  0  0  0  0  0  0  0  0  0  0  0
    8.8891    2.3864   -0.9229 H   0  0  0  0  0  0  0  0  0  0  0  0
    8.9304    1.3198    1.3414 H   0  0  0  0  0  0  0  0  0  0  0  0
   10.5975    1.8289    1.5555 H   0  0  0  0  0  0  0  0  0  0  0  0
   11.4511    0.3480    0.0066 H   0  0  0  0  0  0  0  0  0  0  0  0
    9.9889    0.3065   -0.9803 H   0  0  0  0  0  0  0  0  0  0  0  0
    5.6963   -1.9546    2.0999 H   0  0  0  0  0  0  0  0  0  0  0  0
    6.9610    0.1588    3.3122 H   0  0  0  0  0  0  0  0  0  0  0  0
    7.4976   -1.5008    3.8261 H   0  0  0  0  0  0  0  0  0  0  0  0
    5.8883   -1.8608    5.3622 H   0  0  0  0  0  0  0  0  0  0  0  0
    5.4780   -0.1215    5.2068 H   0  0  0  0  0  0  0  0  0  0  0  0
    7.9184    0.4882    5.2417 H   0  0  0  0  0  0  0  0  0  0  0  0
    8.2832   -1.2668    5.3087 H   0  0  0  0  0  0  0  0  0  0  0  0
    7.6973   -1.3711    7.5806 H   0  0  0  0  0  0  0  0  0  0  0  0
    7.7992    0.3907    7.5859 H   0  0  0  0  0  0  0  0  0  0  0  0
   10.0391    0.1013    7.6931 H   0  0  0  0  0  0  0  0  0  0  0  0
    9.9147   -1.5991    7.4280 H   0  0  0  0  0  0  0  0  0  0  0  0
   11.5318   -1.1198    6.0443 H   0  0  0  0  0  0  0  0  0  0  0  0
   11.1088    0.5305    5.8227 H   0  0  0  0  0  0  0  0  0  0  0  0
   11.5586   -1.4763    3.8956 H   0  0  0  0  0  0  0  0  0  0  0  0
   11.1820    0.2032    3.6461 H   0  0  0  0  0  0  0  0  0  0  0  0
    9.2856   -2.1270    3.6116 H   0  0  0  0  0  0  0  0  0  0  0  0
    8.9456   -0.2897    3.5710 H   0  0  0  0  0  0  0  0  0  0  0  0
    6.8761   -2.0055   -0.4901 H   0  0  0  0  0  0  0  0  0  0  0  0
    7.4375   -0.3320   -0.5475 H   0  0  0  0  0  0  0  0  0  0  0  0
    4.9783   -0.5498    1.1841 H   0  0  0  0  0  0  0  0  0  0  0  0
    4.7503   -1.3680   -0.3412 H   0  0  0  0  0  0  0  0  0  0  0  0
  1  2  2  0  0  0  0
  1 28  1  0  0  0  0
  1 29  1  0  0  0  0
  2  3  1  0  0  0  0
  2 30  1  0  0  0  0
  3  4  1  0  0  0  0
  3 31  1  0  0  0  0
  3 32  1  0  0  0  0
  4  5  1  0  0  0  0
  4 27  1  0  0  0  0
  4 33  1  0  0  0  0
  5  6  1  0  0  0  0
  5 34  1  0  0  0  0
  5 35  1  0  0  0  0
  6  7  1  0  0  0  0
  6 36  1  0  0  0  0
  6 37  1  0  0  0  0
  7  8  1  0  0  0  0
  7 38  1  0  0  0  0
  7 39  1  0  0  0  0
  8  9  1  0  0  0  0
  8 40  1  0  0  0  0
  8 41  1  0  0  0  0
  9 10  1  0  0  0  0
  9 42  1  0  0  0  0
  9 43  1  0  0  0  0
 10 11  1  0  0  0  0
 10 44  1  0  0  0  0
 10 45  1  0  0  0  0
 11 12  1  0  0  0  0
 11 46  1  0  0  0  0
 11 47  1  0  0  0  0
 12 13  1  0  0  0  0
 12 48  1  0  0  0  0
 12 49  1  0  0  0  0
 13 14  2  0  0  0  0
 13 15  1  0  0  0  0
 15 16  2  3  0  0  0
 15 25  1  0  0  0  0
 16 17  1  0  0  0  0
 16 26  1  0  0  0  0
 17 18  1  0  0  0  0
 17 50  1  0  0  0  0
 18 19  1  0  0  0  0
 18 51  1  0  0  0  0
 18 52  1  0  0  0  0
 19 20  1  0  0  0  0
 19 53  1  0  0  0  0
 19 54  1  0  0  0  0
 20 21  1  0  0  0  0
 20 55  1  0  0  0  0
 20 56  1  0  0  0  0
 21 22  1  0  0  0  0
 21 57  1  0  0  0  0
 21 58  1  0  0  0  0
 22 23  1  0  0  0  0
 22 59  1  0  0  0  0
 22 60  1  0  0  0  0
 23 24  1  0  0  0  0
 23 61  1  0  0  0  0
 23 62  1  0  0  0  0
 24 25  1  0  0  0  0
 24 63  1  0  0  0  0
 24 64  1  0  0  0  0
 25 65  1  0  0  0  0
 25 66  1  0  0  0  0
 26 27  1  0  0  0  0
 26 67  1  0  0  0  0
 26 68  1  0  0  0  0
 27 69  1  0  0  0  0
 27 70  1  0  0  0  0
M  END
$$$$
