
 OpenBabel04232216513D

 59 60  0  0  1  0  0  0  0  0999 V2000
    3.7630   -0.0556    1.2062 C   0  0  0  0  0  0  0  0  0  0  0  0
    5.5098    0.0898    0.9714 C   0  0  0  0  0  0  0  0  0  0  0  0
    7.1478    0.5595    1.8735 C   0  0  3  0  0  0  0  0  0  0  0  0
    7.7085    1.9101    2.5374 C   0  0  0  0  0  0  0  0  0  0  0  0
    6.8373    2.9789    2.4165 C   0  0  0  0  0  0  0  0  0  0  0  0
    5.3440    2.6449    2.7749 C   0  0  0  0  0  0  0  0  0  0  0  0
    5.0712    2.3757    4.0620 C   0  0  0  0  0  0  0  0  0  0  0  0
    5.7444    1.1798    4.5828 C   0  0  0  0  0  0  0  0  0  0  0  0
    6.8930    1.4864    5.1786 C   0  0  0  0  0  0  0  0  0  0  0  0
    7.9667    0.7066    5.6216 C   0  0  0  0  0  0  0  0  0  0  0  0
    8.7931    1.5026    6.2851 C   0  0  0  0  0  0  0  0  0  0  0  0
    9.8545    1.0655    7.0623 C   0  0  0  0  0  0  0  0  0  0  0  0
   10.4987    2.0086    7.7529 C   0  0  0  0  0  0  0  0  0  0  0  0
   11.2171    1.4641    8.8167 C   0  0  0  0  0  0  0  0  0  0  0  0
   11.9558    2.0303    9.7630 C   0  0  0  0  0  0  0  0  0  0  0  0
   12.4105    1.0028   10.6894 C   0  0  0  0  0  0  0  0  0  0  0  0
   13.6413    1.0028   11.2107 C   0  0  0  0  0  0  0  0  0  0  0  0
   14.4593    0.0411   10.4059 C   0  0  0  0  0  0  0  0  0  0  0  0
   14.6144   -1.1901   11.0024 N   0  0  0  0  0  0  0  0  0  0  0  0
   14.6164    0.4661    9.0733 C   0  0  0  0  0  0  0  0  0  0  0  0
   13.8890    0.4733    7.5583 C   0  0  0  0  0  0  0  0  0  0  0  0
   13.5491    1.5977    6.6884 C   0  0  0  0  0  0  0  0  0  0  0  0
   14.8466    2.8035    7.4047 C   0  0  0  0  0  0  0  0  0  0  0  0
   16.1886    2.7657    8.6687 C   0  0  0  0  0  0  0  0  0  0  0  0
   12.1212    1.6612    5.3836 C   0  0  0  0  0  0  0  0  0  0  0  0
   10.8857    1.3440    4.2657 C   0  0  0  0  0  0  0  0  0  0  0  0
    9.3020    1.1805    3.0418 C   0  0  0  0  0  0  0  0  0  0  0  0
    8.8063    0.2875    2.0741 C   0  0  0  0  0  0  0  0  0  0  0  0
    3.3309   -0.5926    0.3083 H   0  0  0  0  0  0  0  0  0  0  0  0
    3.1453    0.8711    1.1110 H   0  0  0  0  0  0  0  0  0  0  0  0
    3.3378   -0.6575    2.0268 H   0  0  0  0  0  0  0  0  0  0  0  0
    5.4071    0.8498    0.1654 H   0  0  0  0  0  0  0  0  0  0  0  0
    5.6903   -0.8767    0.4768 H   0  0  0  0  0  0  0  0  0  0  0  0
    7.1988    0.6996    0.7610 H   0  0  0  0  0  0  0  0  0  0  0  0
    6.5307    3.1719    1.3445 H   0  0  0  0  0  0  0  0  0  0  0  0
    4.8406    1.9331    2.1262 H   0  0  0  0  0  0  0  0  0  0  0  0
    5.3601    3.2431    4.6741 H   0  0  0  0  0  0  0  0  0  0  0  0
    5.5629    0.1584    4.2523 H   0  0  0  0  0  0  0  0  0  0  0  0
    7.1228    2.5575    5.1949 H   0  0  0  0  0  0  0  0  0  0  0  0
    8.1265   -0.3481    5.4276 H   0  0  0  0  0  0  0  0  0  0  0  0
    8.6321    2.5787    6.3416 H   0  0  0  0  0  0  0  0  0  0  0  0
   10.0212   -0.0052    7.1491 H   0  0  0  0  0  0  0  0  0  0  0  0
   10.3788    3.0773    7.6048 H   0  0  0  0  0  0  0  0  0  0  0  0
   11.1132    0.3776    8.8284 H   0  0  0  0  0  0  0  0  0  0  0  0
   12.2930    3.0611    9.6962 H   0  0  0  0  0  0  0  0  0  0  0  0
   12.1233   -0.0018   10.3468 H   0  0  0  0  0  0  0  0  0  0  0  0
   14.0782    1.9407   11.5379 H   0  0  0  0  0  0  0  0  0  0  0  0
   14.2735   -1.9321   10.3908 H   0  0  0  0  0  0  0  0  0  0  0  0
   15.6030   -1.3950   11.1267 H   0  0  0  0  0  0  0  0  0  0  0  0
   14.6115    1.5201    9.2601 H   0  0  0  0  0  0  0  0  0  0  0  0
   14.9550    0.2241    7.2672 H   0  0  0  0  0  0  0  0  0  0  0  0
   14.2473    3.5667    7.9230 H   0  0  0  0  0  0  0  0  0  0  0  0
   15.3945    3.2087    6.5349 H   0  0  0  0  0  0  0  0  0  0  0  0
   16.2519    3.7511    9.2380 H   0  0  0  0  0  0  0  0  0  0  0  0
   16.2609    2.0801    9.5729 H   0  0  0  0  0  0  0  0  0  0  0  0
   17.2331    2.6359    8.2522 H   0  0  0  0  0  0  0  0  0  0  0  0
   12.3142    0.5877    5.4790 H   0  0  0  0  0  0  0  0  0  0  0  0
   10.6323    2.3592    4.1557 H   0  0  0  0  0  0  0  0  0  0  0  0
    9.4051   -0.1354    1.2563 H   0  0  0  0  0  0  0  0  0  0  0  0
  1  2  1  0  0  0  0
  1 29  1  0  0  0  0
  1 30  1  0  0  0  0
  1 31  1  0  0  0  0
  2  3  1  0  0  0  0
  2 32  1  0  0  0  0
  2 33  1  0  0  0  0
  3  4  1  0  0  0  0
  3 28  1  0  0  0  0
  3 34  1  0  0  0  0
  4  5  2  3  0  0  0
  4 27  1  0  0  0  0
  5  6  1  0  0  0  0
  5 35  1  0  0  0  0
  6  7  2  3  0  0  0
  6 36  1  0  0  0  0
  7  8  1  0  0  0  0
  7 37  1  0  0  0  0
  8  9  2  3  0  0  0
  8 38  1  0  0  0  0
  9 10  1  0  0  0  0
  9 39  1  0  0  0  0
 10 11  2  3  0  0  0
 10 40  1  0  0  0  0
 11 12  1  0  0  0  0
 11 41  1  0  0  0  0
 12 13  2  3  0  0  0
 12 42  1  0  0  0  0
 13 14  1  0  0  0  0
 13 43  1  0  0  0  0
 14 15  2  3  0  0  0
 14 44  1  0  0  0  0
 15 16  1  0  0  0  0
 15 45  1  0  0  0  0
 16 17  2  3  0  0  0
 16 46  1  0  0  0  0
 17 18  1  0  0  0  0
 17 47  1  0  0  0  0
 18 19  1  0  0  0  0
 18 20  2  3  0  0  0
 19 48  1  0  0  0  0
 19 49  1  0  0  0  0
 20 21  1  0  0  0  0
 20 50  1  0  0  0  0
 21 22  2  3  0  0  0
 21 51  1  0  0  0  0
 22 23  1  0  0  0  0
 22 25  1  0  0  0  0
 23 24  1  0  0  0  0
 23 52  1  0  0  0  0
 23 53  1  0  0  0  0
 24 54  1  0  0  0  0
 24 55  1  0  0  0  0
 24 56  1  0  0  0  0
 25 26  2  3  0  0  0
 25 57  1  0  0  0  0
 26 27  1  0  0  0  0
 26 58  1  0  0  0  0
 27 28  2  0  0  0  0
 28 59  1  0  0  0  0
M  END
$$$$
