
 OpenBabel04232216593D

214213  0  0  0  0  0  0  0  0999 V2000
    8.4326    4.3141   -1.8829 O   0  0  0  0  0  0  0  0  0  0  0  0
    9.2500    4.7743   -1.0796 C   0  0  0  0  0  0  0  0  0  0  0  0
    9.4549    6.2597   -0.9948 C   0  0  0  0  0  0  0  0  0  0  0  0
   10.0665    3.8860   -0.1672 C   0  0  0  0  0  0  0  0  0  0  0  0
    9.7369    2.4086   -0.3819 C   0  0  0  0  0  0  0  0  0  0  0  0
   10.5589    1.5194    0.5370 C   0  0  0  0  0  0  0  0  0  0  0  0
   10.1977    0.0622    0.2876 C   0  0  0  0  0  0  0  0  0  0  0  0
   11.0089   -0.8339    1.1980 C   0  0  0  0  0  0  0  0  0  0  0  0
   10.6612   -2.2987    0.9542 C   0  0  0  0  0  0  0  0  0  0  0  0
   11.4752   -3.1694    1.8800 C   0  0  0  0  0  0  0  0  0  0  0  0
   11.1586   -2.8092    3.2251 O   0  0  0  0  0  0  0  0  0  0  0  0
   11.9350   -3.5735    4.1317 C   0  0  0  0  0  0  0  0  0  0  0  0
   13.3231   -3.3524    3.9383 O   0  0  0  0  0  0  0  0  0  0  0  0
   13.9715   -4.2207    4.8943 O   0  0  0  0  0  0  0  0  0  0  0  0
   15.3582   -4.0362    4.6853 C   0  0  0  0  0  0  0  0  0  0  0  0
   16.0461   -4.8390    5.6177 O   0  0  0  0  0  0  0  0  0  0  0  0
   17.4371   -4.5981    5.3396 O   0  0  0  0  0  0  0  0  0  0  0  0
   18.1274   -5.3986    6.2733 C   0  0  0  0  0  0  0  0  0  0  0  0
   19.5134   -5.2228    6.0675 O   0  0  0  0  0  0  0  0  0  0  0  0
   20.1367   -6.0672    7.0549 O   0  0  0  0  0  0  0  0  0  0  0  0
   21.5218   -5.8866    6.8473 C   0  0  0  0  0  0  0  0  0  0  0  0
   22.2110   -6.6877    7.7812 O   0  0  0  0  0  0  0  0  0  0  0  0
   23.6108   -6.4600    7.5155 O   0  0  0  0  0  0  0  0  0  0  0  0
   24.2689   -7.2743    8.4680 C   0  0  0  0  0  0  0  0  0  0  0  0
   25.7552   -7.1027    8.2709 C   0  0  0  0  0  0  0  0  0  0  0  0
   26.5131   -7.9557    9.2687 C   0  0  0  0  0  0  0  0  0  0  0  0
   28.0059   -7.7818    9.0660 C   0  0  0  0  0  0  0  0  0  0  0  0
   28.7674   -8.6343   10.0633 C   0  0  0  0  0  0  0  0  0  0  0  0
   30.2600   -8.4574    9.8570 C   0  0  0  0  0  0  0  0  0  0  0  0
   31.0232   -9.3091   10.8533 C   0  0  0  0  0  0  0  0  0  0  0  0
   32.5153   -9.1332   10.6451 C   0  0  0  0  0  0  0  0  0  0  0  0
   33.2782   -9.9850   11.6415 C   0  0  0  0  0  0  0  0  0  0  0  0
   34.7702   -9.8091   11.4333 C   0  0  0  0  0  0  0  0  0  0  0  0
   35.5327  -10.6614   12.4294 C   0  0  0  0  0  0  0  0  0  0  0  0
   37.0248  -10.4867   12.2204 C   0  0  0  0  0  0  0  0  0  0  0  0
   37.7872  -11.3402   13.2157 C   0  0  0  0  0  0  0  0  0  0  0  0
   39.2793  -11.1644   13.0076 C   0  0  0  0  0  0  0  0  0  0  0  0
   40.0417  -12.0164   14.0042 C   0  0  0  0  0  0  0  0  0  0  0  0
   41.5336  -11.8390   13.7973 C   0  0  0  0  0  0  0  0  0  0  0  0
   42.2961  -12.6924   14.7926 C   0  0  0  0  0  0  0  0  0  0  0  0
   43.7881  -12.5151   14.5858 C   0  0  0  0  0  0  0  0  0  0  0  0
   44.5505  -13.3685   15.5811 C   0  0  0  0  0  0  0  0  0  0  0  0
   46.0425  -13.1912   15.3742 C   0  0  0  0  0  0  0  0  0  0  0  0
   46.8049  -14.0446   16.3695 C   0  0  0  0  0  0  0  0  0  0  0  0
   48.2969  -13.8672   16.1626 C   0  0  0  0  0  0  0  0  0  0  0  0
   49.0593  -14.7207   17.1579 C   0  0  0  0  0  0  0  0  0  0  0  0
   50.5513  -14.5433   16.9511 C   0  0  0  0  0  0  0  0  0  0  0  0
   51.3137  -15.3968   17.9463 C   0  0  0  0  0  0  0  0  0  0  0  0
   52.8057  -15.2179   17.7408 C   0  0  0  0  0  0  0  0  0  0  0  0
   53.5681  -16.0728   18.7348 C   0  0  0  0  0  0  0  0  0  0  0  0
   55.0601  -15.8924   18.5305 C   0  0  0  0  0  0  0  0  0  0  0  0
   55.8225  -16.7474   19.5245 C   0  0  0  0  0  0  0  0  0  0  0  0
   57.3145  -16.5685   19.3190 C   0  0  0  0  0  0  0  0  0  0  0  0
   58.0769  -17.4220   20.3142 C   0  0  0  0  0  0  0  0  0  0  0  0
   59.5689  -17.2446   20.1074 C   0  0  0  0  0  0  0  0  0  0  0  0
   60.3314  -18.0980   21.1027 C   0  0  0  0  0  0  0  0  0  0  0  0
   61.8233  -17.9191   20.8971 C   0  0  0  0  0  0  0  0  0  0  0  0
   62.5858  -18.7726   21.8924 C   0  0  0  0  0  0  0  0  0  0  0  0
   64.0777  -18.5937   21.6869 C   0  0  0  0  0  0  0  0  0  0  0  0
   64.8402  -19.4471   22.6821 C   0  0  0  0  0  0  0  0  0  0  0  0
   66.3321  -19.2682   22.4766 C   0  0  0  0  0  0  0  0  0  0  0  0
   67.0946  -20.1217   23.4719 C   0  0  0  0  0  0  0  0  0  0  0  0
   68.5866  -19.9428   23.2663 C   0  0  0  0  0  0  0  0  0  0  0  0
   69.3490  -20.7963   24.2616 C   0  0  0  0  0  0  0  0  0  0  0  0
   70.8410  -20.6173   24.0561 C   0  0  0  0  0  0  0  0  0  0  0  0
   71.6035  -21.4708   25.0513 C   0  0  0  0  0  0  0  0  0  0  0  0
   73.0955  -21.2904   24.8471 C   0  0  0  0  0  0  0  0  0  0  0  0
   73.8581  -22.1438   25.8424 C   0  0  0  0  0  0  0  0  0  0  0  0
   75.3501  -21.9635   25.6383 C   0  0  0  0  0  0  0  0  0  0  0  0
   76.1127  -22.8169   26.6336 C   0  0  0  0  0  0  0  0  0  0  0  0
   77.6050  -22.6367   26.4296 C   0  0  0  0  0  0  0  0  0  0  0  0
   78.3682  -23.4902   27.4249 C   0  0  0  0  0  0  0  0  0  0  0  0
   79.8612  -23.3118   27.2200 C   0  0  0  0  0  0  0  0  0  0  0  0
   80.6263  -24.1653   28.2153 C   0  0  0  0  0  0  0  0  0  0  0  0
   82.1214  -23.9877   28.0113 C   0  0  0  0  0  0  0  0  0  0  0  0
   82.8899  -24.8430   29.0056 C   0  0  0  0  0  0  0  0  0  0  0  0
   84.3895  -24.6702   28.8102 C   0  0  0  0  0  0  0  0  0  0  0  0
   85.1533  -25.5242   29.8030 C   0  0  0  0  0  0  0  0  0  0  0  0
    8.7941    6.7563   -1.7155 H   0  0  0  0  0  0  0  0  0  0  0  0
   10.4868    6.5104   -1.2455 H   0  0  0  0  0  0  0  0  0  0  0  0
    9.2023    6.6156    0.0050 H   0  0  0  0  0  0  0  0  0  0  0  0
    9.8499    4.1639    0.8681 H   0  0  0  0  0  0  0  0  0  0  0  0
   11.1263    4.0596   -0.3746 H   0  0  0  0  0  0  0  0  0  0  0  0
    9.9313    2.1249   -1.4237 H   0  0  0  0  0  0  0  0  0  0  0  0
    8.6708    2.2280   -0.1966 H   0  0  0  0  0  0  0  0  0  0  0  0
   10.3654    1.7772    1.5861 H   0  0  0  0  0  0  0  0  0  0  0  0
   11.6300    1.6738    0.3552 H   0  0  0  0  0  0  0  0  0  0  0  0
   10.3924   -0.2009   -0.7591 H   0  0  0  0  0  0  0  0  0  0  0  0
    9.1275   -0.0972    0.4693 H   0  0  0  0  0  0  0  0  0  0  0  0
   10.8133   -0.5596    2.2427 H   0  0  0  0  0  0  0  0  0  0  0  0
   12.0800   -0.6728    1.0226 H   0  0  0  0  0  0  0  0  0  0  0  0
   10.8607   -2.5712   -0.0864 H   0  0  0  0  0  0  0  0  0  0  0  0
    9.5921   -2.4578    1.1494 H   0  0  0  0  0  0  0  0  0  0  0  0
   12.5434   -3.0092    1.6814 H   0  0  0  0  0  0  0  0  0  0  0  0
   11.2406   -4.2238    1.7216 H   0  0  0  0  0  0  0  0  0  0  0  0
   11.6883   -4.6335    4.0045 H   0  0  0  0  0  0  0  0  0  0  0  0
   11.6736   -3.2704    5.1490 H   0  0  0  0  0  0  0  0  0  0  0  0
   15.6159   -2.9791    4.8366 H   0  0  0  0  0  0  0  0  0  0  0  0
   15.6188   -4.3402    3.6623 H   0  0  0  0  0  0  0  0  0  0  0  0
   17.8615   -6.4527    6.1257 H   0  0  0  0  0  0  0  0  0  0  0  0
   17.8616   -5.0921    7.2925 H   0  0  0  0  0  0  0  0  0  0  0  0
   21.7840   -4.8318    6.9969 H   0  0  0  0  0  0  0  0  0  0  0  0
   21.7861   -6.1934    5.8276 H   0  0  0  0  0  0  0  0  0  0  0  0
   23.9758   -8.3201    8.3170 H   0  0  0  0  0  0  0  0  0  0  0  0
   23.9733   -6.9649    9.4775 H   0  0  0  0  0  0  0  0  0  0  0  0
   26.0230   -6.0447    8.3835 H   0  0  0  0  0  0  0  0  0  0  0  0
   26.0255   -7.3761    7.2433 H   0  0  0  0  0  0  0  0  0  0  0  0
   26.2389   -9.0107    9.1440 H   0  0  0  0  0  0  0  0  0  0  0  0
   26.2384   -7.6688   10.2914 H   0  0  0  0  0  0  0  0  0  0  0  0
   28.2790   -6.7267    9.1911 H   0  0  0  0  0  0  0  0  0  0  0  0
   28.2794   -8.0691    8.0432 H   0  0  0  0  0  0  0  0  0  0  0  0
   28.4952   -9.6896    9.9386 H   0  0  0  0  0  0  0  0  0  0  0  0
   28.4948   -8.3474   11.0864 H   0  0  0  0  0  0  0  0  0  0  0  0
   30.5322   -7.4021    9.9816 H   0  0  0  0  0  0  0  0  0  0  0  0
   30.5326   -8.7443    8.8338 H   0  0  0  0  0  0  0  0  0  0  0  0
   30.7503  -10.3644   10.7297 H   0  0  0  0  0  0  0  0  0  0  0  0
   30.7519   -9.0213   11.8765 H   0  0  0  0  0  0  0  0  0  0  0  0
   32.7885   -8.0779   10.7687 H   0  0  0  0  0  0  0  0  0  0  0  0
   32.7868   -9.4211    9.6219 H   0  0  0  0  0  0  0  0  0  0  0  0
   33.0052  -11.0403   11.5178 H   0  0  0  0  0  0  0  0  0  0  0  0
   33.0069   -9.6971   12.6647 H   0  0  0  0  0  0  0  0  0  0  0  0
   35.0436   -8.7539   11.5575 H   0  0  0  0  0  0  0  0  0  0  0  0
   35.0417  -10.0967   10.4101 H   0  0  0  0  0  0  0  0  0  0  0  0
   35.2590  -11.7165   12.3059 H   0  0  0  0  0  0  0  0  0  0  0  0
   35.2623  -10.3734   13.4528 H   0  0  0  0  0  0  0  0  0  0  0  0
   37.2990   -9.4318   12.3450 H   0  0  0  0  0  0  0  0  0  0  0  0
   37.2955  -10.7740   11.1969 H   0  0  0  0  0  0  0  0  0  0  0  0
   37.5138  -12.3953   13.0906 H   0  0  0  0  0  0  0  0  0  0  0  0
   37.5160  -11.0537   14.2393 H   0  0  0  0  0  0  0  0  0  0  0  0
   39.5524  -10.1092   13.1314 H   0  0  0  0  0  0  0  0  0  0  0  0
   39.5507  -11.4523   11.9845 H   0  0  0  0  0  0  0  0  0  0  0  0
   39.7695  -13.0717   13.8795 H   0  0  0  0  0  0  0  0  0  0  0  0
   39.7692  -11.7294   15.0274 H   0  0  0  0  0  0  0  0  0  0  0  0
   41.8059  -10.7838   13.9235 H   0  0  0  0  0  0  0  0  0  0  0  0
   41.8060  -12.1246   12.7738 H   0  0  0  0  0  0  0  0  0  0  0  0
   42.0238  -13.7476   14.6665 H   0  0  0  0  0  0  0  0  0  0  0  0
   42.0238  -12.4068   15.8162 H   0  0  0  0  0  0  0  0  0  0  0  0
   44.0604  -11.4599   14.7119 H   0  0  0  0  0  0  0  0  0  0  0  0
   44.0604  -12.8007   13.5622 H   0  0  0  0  0  0  0  0  0  0  0  0
   44.2782  -14.4237   15.4549 H   0  0  0  0  0  0  0  0  0  0  0  0
   44.2782  -13.0829   16.6046 H   0  0  0  0  0  0  0  0  0  0  0  0
   46.3148  -12.1360   15.5004 H   0  0  0  0  0  0  0  0  0  0  0  0
   46.3148  -13.4768   14.3506 H   0  0  0  0  0  0  0  0  0  0  0  0
   46.5326  -15.0998   16.2433 H   0  0  0  0  0  0  0  0  0  0  0  0
   46.5326  -13.7590   17.3931 H   0  0  0  0  0  0  0  0  0  0  0  0
   48.5692  -12.8121   16.2888 H   0  0  0  0  0  0  0  0  0  0  0  0
   48.5692  -14.1528   15.1390 H   0  0  0  0  0  0  0  0  0  0  0  0
   48.7870  -15.7759   17.0318 H   0  0  0  0  0  0  0  0  0  0  0  0
   48.7870  -14.4351   18.1815 H   0  0  0  0  0  0  0  0  0  0  0  0
   50.8236  -13.4881   17.0772 H   0  0  0  0  0  0  0  0  0  0  0  0
   50.8237  -14.8289   15.9275 H   0  0  0  0  0  0  0  0  0  0  0  0
   51.0424  -16.4521   17.8192 H   0  0  0  0  0  0  0  0  0  0  0  0
   51.0404  -15.1122   18.9699 H   0  0  0  0  0  0  0  0  0  0  0  0
   53.0771  -14.1627   17.8693 H   0  0  0  0  0  0  0  0  0  0  0  0
   53.0790  -15.5011   16.7168 H   0  0  0  0  0  0  0  0  0  0  0  0
   53.2977  -17.1281   18.6053 H   0  0  0  0  0  0  0  0  0  0  0  0
   53.2939  -15.7906   19.7588 H   0  0  0  0  0  0  0  0  0  0  0  0
   55.3305  -14.8372   18.6600 H   0  0  0  0  0  0  0  0  0  0  0  0
   55.3343  -16.1747   17.5065 H   0  0  0  0  0  0  0  0  0  0  0  0
   55.5511  -17.8025   19.3960 H   0  0  0  0  0  0  0  0  0  0  0  0
   55.5493  -16.4641   20.5485 H   0  0  0  0  0  0  0  0  0  0  0  0
   57.5858  -15.5132   19.4461 H   0  0  0  0  0  0  0  0  0  0  0  0
   57.5879  -16.8531   18.2954 H   0  0  0  0  0  0  0  0  0  0  0  0
   57.8047  -18.4772   20.1881 H   0  0  0  0  0  0  0  0  0  0  0  0
   57.8046  -17.1364   21.3378 H   0  0  0  0  0  0  0  0  0  0  0  0
   59.8412  -16.1894   20.2335 H   0  0  0  0  0  0  0  0  0  0  0  0
   59.8413  -17.5302   19.0838 H   0  0  0  0  0  0  0  0  0  0  0  0
   60.0601  -19.1534   20.9755 H   0  0  0  0  0  0  0  0  0  0  0  0
   60.0580  -17.8134   22.1262 H   0  0  0  0  0  0  0  0  0  0  0  0
   62.0946  -16.8638   21.0242 H   0  0  0  0  0  0  0  0  0  0  0  0
   62.0967  -18.2038   19.8735 H   0  0  0  0  0  0  0  0  0  0  0  0
   62.3145  -19.8279   21.7653 H   0  0  0  0  0  0  0  0  0  0  0  0
   62.3124  -18.4880   22.9160 H   0  0  0  0  0  0  0  0  0  0  0  0
   64.3490  -17.5383   21.8140 H   0  0  0  0  0  0  0  0  0  0  0  0
   64.3511  -18.8783   20.6633 H   0  0  0  0  0  0  0  0  0  0  0  0
   64.5689  -20.5025   22.5550 H   0  0  0  0  0  0  0  0  0  0  0  0
   64.5668  -19.1625   23.7057 H   0  0  0  0  0  0  0  0  0  0  0  0
   66.6034  -18.2129   22.6037 H   0  0  0  0  0  0  0  0  0  0  0  0
   66.6056  -19.5529   21.4530 H   0  0  0  0  0  0  0  0  0  0  0  0
   66.8233  -21.1770   23.3448 H   0  0  0  0  0  0  0  0  0  0  0  0
   66.8212  -19.8371   24.4954 H   0  0  0  0  0  0  0  0  0  0  0  0
   68.8578  -18.8875   23.3935 H   0  0  0  0  0  0  0  0  0  0  0  0
   68.8600  -20.2274   22.2428 H   0  0  0  0  0  0  0  0  0  0  0  0
   69.0778  -21.8516   24.1345 H   0  0  0  0  0  0  0  0  0  0  0  0
   69.0756  -20.5116   25.2852 H   0  0  0  0  0  0  0  0  0  0  0  0
   71.1122  -19.5620   24.1832 H   0  0  0  0  0  0  0  0  0  0  0  0
   71.1144  -20.9019   23.0325 H   0  0  0  0  0  0  0  0  0  0  0  0
   71.3333  -22.5263   24.9232 H   0  0  0  0  0  0  0  0  0  0  0  0
   71.3291  -21.1872   26.0749 H   0  0  0  0  0  0  0  0  0  0  0  0
   73.3656  -20.2349   24.9752 H   0  0  0  0  0  0  0  0  0  0  0  0
   73.3700  -21.5740   23.8236 H   0  0  0  0  0  0  0  0  0  0  0  0
   73.5878  -23.1993   25.7143 H   0  0  0  0  0  0  0  0  0  0  0  0
   73.5835  -21.8602   26.8659 H   0  0  0  0  0  0  0  0  0  0  0  0
   75.6202  -20.9080   25.7663 H   0  0  0  0  0  0  0  0  0  0  0  0
   75.6245  -22.2470   24.6147 H   0  0  0  0  0  0  0  0  0  0  0  0
   75.8423  -23.8723   26.5055 H   0  0  0  0  0  0  0  0  0  0  0  0
   75.8380  -22.5333   27.6571 H   0  0  0  0  0  0  0  0  0  0  0  0
   77.8748  -21.5811   26.5575 H   0  0  0  0  0  0  0  0  0  0  0  0
   77.8790  -22.9202   25.4059 H   0  0  0  0  0  0  0  0  0  0  0  0
   78.0964  -24.5454   27.2977 H   0  0  0  0  0  0  0  0  0  0  0  0
   78.0942  -23.2055   28.4483 H   0  0  0  0  0  0  0  0  0  0  0  0
   80.1315  -22.2562   27.3467 H   0  0  0  0  0  0  0  0  0  0  0  0
   80.1336  -23.5961   26.1961 H   0  0  0  0  0  0  0  0  0  0  0  0
   80.3534  -25.2202   28.0880 H   0  0  0  0  0  0  0  0  0  0  0  0
   80.3513  -23.8806   29.2384 H   0  0  0  0  0  0  0  0  0  0  0  0
   82.3903  -22.9320   28.1391 H   0  0  0  0  0  0  0  0  0  0  0  0
   82.3922  -24.2704   26.9867 H   0  0  0  0  0  0  0  0  0  0  0  0
   82.6150  -25.8970   28.8755 H   0  0  0  0  0  0  0  0  0  0  0  0
   82.6112  -24.5603   30.0283 H   0  0  0  0  0  0  0  0  0  0  0  0
   84.6641  -23.6171   28.9419 H   0  0  0  0  0  0  0  0  0  0  0  0
   84.6679  -24.9543   27.7887 H   0  0  0  0  0  0  0  0  0  0  0  0
   84.9041  -25.2393   30.8302 H   0  0  0  0  0  0  0  0  0  0  0  0
   86.2300  -25.3989   29.6614 H   0  0  0  0  0  0  0  0  0  0  0  0
   84.9079  -26.5828   29.6715 H   0  0  0  0  0  0  0  0  0  0  0  0
  1  2  2  0  0  0  0
  2  3  1  0  0  0  0
  2  4  1  0  0  0  0
  3 79  1  0  0  0  0
  3 80  1  0  0  0  0
  3 81  1  0  0  0  0
  4  5  1  0  0  0  0
  4 82  1  0  0  0  0
  4 83  1  0  0  0  0
  5  6  1  0  0  0  0
  5 84  1  0  0  0  0
  5 85  1  0  0  0  0
  6  7  1  0  0  0  0
  6 86  1  0  0  0  0
  6 87  1  0  0  0  0
  7  8  1  0  0  0  0
  7 88  1  0  0  0  0
  7 89  1  0  0  0  0
  8  9  1  0  0  0  0
  8 90  1  0  0  0  0
  8 91  1  0  0  0  0
  9 10  1  0  0  0  0
  9 92  1  0  0  0  0
  9 93  1  0  0  0  0
 10 11  1  0  0  0  0
 10 94  1  0  0  0  0
 10 95  1  0  0  0  0
 11 12  1  0  0  0  0
 12 13  1  0  0  0  0
 12 96  1  0  0  0  0
 12 97  1  0  0  0  0
 13 14  1  0  0  0  0
 14 15  1  0  0  0  0
 15 16  1  0  0  0  0
 15 98  1  0  0  0  0
 15 99  1  0  0  0  0
 16 17  1  0  0  0  0
 17 18  1  0  0  0  0
 18 19  1  0  0  0  0
 18100  1  0  0  0  0
 18101  1  0  0  0  0
 19 20  1  0  0  0  0
 20 21  1  0  0  0  0
 21 22  1  0  0  0  0
 21102  1  0  0  0  0
 21103  1  0  0  0  0
 22 23  1  0  0  0  0
 23 24  1  0  0  0  0
 24 25  1  0  0  0  0
 24104  1  0  0  0  0
 24105  1  0  0  0  0
 25 26  1  0  0  0  0
 25106  1  0  0  0  0
 25107  1  0  0  0  0
 26 27  1  0  0  0  0
 26108  1  0  0  0  0
 26109  1  0  0  0  0
 27 28  1  0  0  0  0
 27110  1  0  0  0  0
 27111  1  0  0  0  0
 28 29  1  0  0  0  0
 28112  1  0  0  0  0
 28113  1  0  0  0  0
 29 30  1  0  0  0  0
 29114  1  0  0  0  0
 29115  1  0  0  0  0
 30 31  1  0  0  0  0
 30116  1  0  0  0  0
 30117  1  0  0  0  0
 31 32  1  0  0  0  0
 31118  1  0  0  0  0
 31119  1  0  0  0  0
 32 33  1  0  0  0  0
 32120  1  0  0  0  0
 32121  1  0  0  0  0
 33 34  1  0  0  0  0
 33122  1  0  0  0  0
 33123  1  0  0  0  0
 34 35  1  0  0  0  0
 34124  1  0  0  0  0
 34125  1  0  0  0  0
 35 36  1  0  0  0  0
 35126  1  0  0  0  0
 35127  1  0  0  0  0
 36 37  1  0  0  0  0
 36128  1  0  0  0  0
 36129  1  0  0  0  0
 37 38  1  0  0  0  0
 37130  1  0  0  0  0
 37131  1  0  0  0  0
 38 39  1  0  0  0  0
 38132  1  0  0  0  0
 38133  1  0  0  0  0
 39 40  1  0  0  0  0
 39134  1  0  0  0  0
 39135  1  0  0  0  0
 40 41  1  0  0  0  0
 40136  1  0  0  0  0
 40137  1  0  0  0  0
 41 42  1  0  0  0  0
 41138  1  0  0  0  0
 41139  1  0  0  0  0
 42 43  1  0  0  0  0
 42140  1  0  0  0  0
 42141  1  0  0  0  0
 43 44  1  0  0  0  0
 43142  1  0  0  0  0
 43143  1  0  0  0  0
 44 45  1  0  0  0  0
 44144  1  0  0  0  0
 44145  1  0  0  0  0
 45 46  1  0  0  0  0
 45146  1  0  0  0  0
 45147  1  0  0  0  0
 46 47  1  0  0  0  0
 46148  1  0  0  0  0
 46149  1  0  0  0  0
 47 48  1  0  0  0  0
 47150  1  0  0  0  0
 47151  1  0  0  0  0
 48 49  1  0  0  0  0
 48152  1  0  0  0  0
 48153  1  0  0  0  0
 49 50  1  0  0  0  0
 49154  1  0  0  0  0
 49155  1  0  0  0  0
 50 51  1  0  0  0  0
 50156  1  0  0  0  0
 50157  1  0  0  0  0
 51 52  1  0  0  0  0
 51158  1  0  0  0  0
 51159  1  0  0  0  0
 52 53  1  0  0  0  0
 52160  1  0  0  0  0
 52161  1  0  0  0  0
 53 54  1  0  0  0  0
 53162  1  0  0  0  0
 53163  1  0  0  0  0
 54 55  1  0  0  0  0
 54164  1  0  0  0  0
 54165  1  0  0  0  0
 55 56  1  0  0  0  0
 55166  1  0  0  0  0
 55167  1  0  0  0  0
 56 57  1  0  0  0  0
 56168  1  0  0  0  0
 56169  1  0  0  0  0
 57 58  1  0  0  0  0
 57170  1  0  0  0  0
 57171  1  0  0  0  0
 58 59  1  0  0  0  0
 58172  1  0  0  0  0
 58173  1  0  0  0  0
 59 60  1  0  0  0  0
 59174  1  0  0  0  0
 59175  1  0  0  0  0
 60 61  1  0  0  0  0
 60176  1  0  0  0  0
 60177  1  0  0  0  0
 61 62  1  0  0  0  0
 61178  1  0  0  0  0
 61179  1  0  0  0  0
 62 63  1  0  0  0  0
 62180  1  0  0  0  0
 62181  1  0  0  0  0
 63 64  1  0  0  0  0
 63182  1  0  0  0  0
 63183  1  0  0  0  0
 64 65  1  0  0  0  0
 64184  1  0  0  0  0
 64185  1  0  0  0  0
 65 66  1  0  0  0  0
 65186  1  0  0  0  0
 65187  1  0  0  0  0
 66 67  1  0  0  0  0
 66188  1  0  0  0  0
 66189  1  0  0  0  0
 67 68  1  0  0  0  0
 67190  1  0  0  0  0
 67191  1  0  0  0  0
 68 69  1  0  0  0  0
 68192  1  0  0  0  0
 68193  1  0  0  0  0
 69 70  1  0  0  0  0
 69194  1  0  0  0  0
 69195  1  0  0  0  0
 70 71  1  0  0  0  0
 70196  1  0  0  0  0
 70197  1  0  0  0  0
 71 72  1  0  0  0  0
 71198  1  0  0  0  0
 71199  1  0  0  0  0
 72 73  1  0  0  0  0
 72200  1  0  0  0  0
 72201  1  0  0  0  0
 73 74  1  0  0  0  0
 73202  1  0  0  0  0
 73203  1  0  0  0  0
 74 75  1  0  0  0  0
 74204  1  0  0  0  0
 74205  1  0  0  0  0
 75 76  1  0  0  0  0
 75206  1  0  0  0  0
 75207  1  0  0  0  0
 76 77  1  0  0  0  0
 76208  1  0  0  0  0
 76209  1  0  0  0  0
 77 78  1  0  0  0  0
 77210  1  0  0  0  0
 77211  1  0  0  0  0
 78212  1  0  0  0  0
 78213  1  0  0  0  0
 78214  1  0  0  0  0
M  END
$$$$
