
 OpenBabel04232216593D

236235  0  0  0  0  0  0  0  0999 V2000
    2.8146    0.9615    0.2880 O   0  0  0  0  0  0  0  0  0  0  0  0
    2.2821   -0.0822   -0.0942 C   0  0  0  0  0  0  0  0  0  0  0  0
    3.0474   -1.2896   -0.5410 C   0  0  0  0  0  0  0  0  0  0  0  0
    4.5484   -1.0380   -0.4555 C   0  0  0  0  0  0  0  0  0  0  0  0
    5.3194   -2.2652   -0.9096 C   0  0  0  0  0  0  0  0  0  0  0  0
    6.8143   -2.0120   -0.8237 C   0  0  0  0  0  0  0  0  0  0  0  0
    7.5876   -3.2388   -1.2798 C   0  0  0  0  0  0  0  0  0  0  0  0
    9.0741   -2.9666   -1.1888 C   0  0  0  0  0  0  0  0  0  0  0  0
    9.7845   -4.1212   -1.6180 O   0  0  0  0  0  0  0  0  0  0  0  0
   11.1826   -3.8752   -1.5341 C   0  0  0  0  0  0  0  0  0  0  0  0
   11.9292   -5.1081   -1.9945 C   0  0  0  0  0  0  0  0  0  0  0  0
   13.4248   -4.8582   -1.9076 C   0  0  0  0  0  0  0  0  0  0  0  0
   14.1910   -6.0838   -2.3674 C   0  0  0  0  0  0  0  0  0  0  0  0
   15.6841   -5.8263   -2.2755 C   0  0  0  0  0  0  0  0  0  0  0  0
   16.4482   -7.0534   -2.7359 C   0  0  0  0  0  0  0  0  0  0  0  0
   17.9404   -6.7963   -2.6463 C   0  0  0  0  0  0  0  0  0  0  0  0
   18.7032   -8.0245   -3.1050 C   0  0  0  0  0  0  0  0  0  0  0  0
   20.1952   -7.7681   -3.0134 C   0  0  0  0  0  0  0  0  0  0  0  0
   20.9578   -8.9955   -3.4739 C   0  0  0  0  0  0  0  0  0  0  0  0
   22.4497   -8.7397   -3.3805 C   0  0  0  0  0  0  0  0  0  0  0  0
   23.2123   -9.9664   -3.8429 C   0  0  0  0  0  0  0  0  0  0  0  0
   24.7042   -9.7112   -3.7475 C   0  0  0  0  0  0  0  0  0  0  0  0
   25.4667  -10.9372   -4.2118 C   0  0  0  0  0  0  0  0  0  0  0  0
   26.9586  -10.6814   -4.1184 C   0  0  0  0  0  0  0  0  0  0  0  0
   27.7211  -11.9074   -4.5827 C   0  0  0  0  0  0  0  0  0  0  0  0
   29.2130  -11.6522   -4.4873 C   0  0  0  0  0  0  0  0  0  0  0  0
   29.9755  -12.8782   -4.9516 C   0  0  0  0  0  0  0  0  0  0  0  0
   31.4674  -12.6231   -4.8563 C   0  0  0  0  0  0  0  0  0  0  0  0
   32.2299  -13.8491   -5.3206 C   0  0  0  0  0  0  0  0  0  0  0  0
   33.7218  -13.5939   -5.2252 C   0  0  0  0  0  0  0  0  0  0  0  0
   34.4843  -14.8199   -5.6895 C   0  0  0  0  0  0  0  0  0  0  0  0
   35.9762  -14.5648   -5.5941 C   0  0  0  0  0  0  0  0  0  0  0  0
   36.7387  -15.7901   -6.0603 C   0  0  0  0  0  0  0  0  0  0  0  0
   38.2306  -15.5349   -5.9650 C   0  0  0  0  0  0  0  0  0  0  0  0
   38.9931  -16.7602   -6.4312 C   0  0  0  0  0  0  0  0  0  0  0  0
   40.4851  -16.5051   -6.3358 C   0  0  0  0  0  0  0  0  0  0  0  0
   41.2475  -17.7296   -6.8039 C   0  0  0  0  0  0  0  0  0  0  0  0
   42.7395  -17.4752   -6.7066 C   0  0  0  0  0  0  0  0  0  0  0  0
   43.5020  -18.7005   -7.1728 C   0  0  0  0  0  0  0  0  0  0  0  0
   44.9939  -18.4454   -7.0775 C   0  0  0  0  0  0  0  0  0  0  0  0
   45.7564  -19.6699   -7.5455 C   0  0  0  0  0  0  0  0  0  0  0  0
   47.2483  -19.4155   -7.4483 C   0  0  0  0  0  0  0  0  0  0  0  0
   48.0108  -20.6400   -7.9164 C   0  0  0  0  0  0  0  0  0  0  0  0
   49.5027  -20.3857   -7.8191 C   0  0  0  0  0  0  0  0  0  0  0  0
   50.2652  -21.6102   -8.2872 C   0  0  0  0  0  0  0  0  0  0  0  0
   51.7571  -21.3558   -8.1900 C   0  0  0  0  0  0  0  0  0  0  0  0
   52.5196  -22.5803   -8.6580 C   0  0  0  0  0  0  0  0  0  0  0  0
   54.0115  -22.3267   -8.5589 C   0  0  0  0  0  0  0  0  0  0  0  0
   54.7740  -23.5505   -9.0288 C   0  0  0  0  0  0  0  0  0  0  0  0
   56.2659  -23.2975   -8.9279 C   0  0  0  0  0  0  0  0  0  0  0  0
   57.0284  -24.5214   -9.3978 C   0  0  0  0  0  0  0  0  0  0  0  0
   58.5203  -24.2677   -9.2987 C   0  0  0  0  0  0  0  0  0  0  0  0
   59.2828  -25.4908   -9.7705 C   0  0  0  0  0  0  0  0  0  0  0  0
   60.7747  -25.2364   -9.6733 C   0  0  0  0  0  0  0  0  0  0  0  0
   61.5372  -26.4602  -10.1433 C   0  0  0  0  0  0  0  0  0  0  0  0
   63.0291  -26.2065  -10.0441 C   0  0  0  0  0  0  0  0  0  0  0  0
   63.7916  -27.4310  -10.5122 C   0  0  0  0  0  0  0  0  0  0  0  0
   65.2835  -27.1774  -10.4131 C   0  0  0  0  0  0  0  0  0  0  0  0
   66.0460  -28.4026  -10.8793 C   0  0  0  0  0  0  0  0  0  0  0  0
   67.5379  -28.1490  -10.7801 C   0  0  0  0  0  0  0  0  0  0  0  0
   68.3004  -29.3742  -11.2463 C   0  0  0  0  0  0  0  0  0  0  0  0
   69.7923  -29.1205  -11.1472 C   0  0  0  0  0  0  0  0  0  0  0  0
   70.5548  -30.3458  -11.6134 C   0  0  0  0  0  0  0  0  0  0  0  0
   72.0468  -30.0921  -11.5143 C   0  0  0  0  0  0  0  0  0  0  0  0
   72.8092  -31.3174  -11.9804 C   0  0  0  0  0  0  0  0  0  0  0  0
   74.3012  -31.0637  -11.8813 C   0  0  0  0  0  0  0  0  0  0  0  0
   75.0636  -32.2890  -12.3475 C   0  0  0  0  0  0  0  0  0  0  0  0
   76.5556  -32.0353  -12.2484 C   0  0  0  0  0  0  0  0  0  0  0  0
   77.3181  -33.2613  -12.7127 C   0  0  0  0  0  0  0  0  0  0  0  0
   78.8100  -33.0076  -12.6136 C   0  0  0  0  0  0  0  0  0  0  0  0
   79.5726  -34.2336  -13.0779 C   0  0  0  0  0  0  0  0  0  0  0  0
   81.0646  -33.9800  -12.9788 C   0  0  0  0  0  0  0  0  0  0  0  0
   81.8274  -35.2060  -13.4431 C   0  0  0  0  0  0  0  0  0  0  0  0
   83.3198  -34.9528  -13.3441 C   0  0  0  0  0  0  0  0  0  0  0  0
   84.0831  -36.1799  -13.8067 C   0  0  0  0  0  0  0  0  0  0  0  0
   85.5763  -35.9282  -13.7083 C   0  0  0  0  0  0  0  0  0  0  0  0
   86.3415  -37.1557  -14.1710 C   0  0  0  0  0  0  0  0  0  0  0  0
   87.8363  -36.9035  -14.0746 C   0  0  0  0  0  0  0  0  0  0  0  0
   88.6095  -38.1286  -14.5386 C   0  0  0  0  0  0  0  0  0  0  0  0
   90.1002  -37.8751  -14.4417 C   0  0  0  0  0  0  0  0  0  0  0  0
    1.1855   -0.1660   -0.1213 H   0  0  0  0  0  0  0  0  0  0  0  0
    2.7624   -1.5192   -1.5733 H   0  0  0  0  0  0  0  0  0  0  0  0
    2.7701   -2.1335    0.0999 H   0  0  0  0  0  0  0  0  0  0  0  0
    4.8258   -0.7799    0.5753 H   0  0  0  0  0  0  0  0  0  0  0  0
    4.8181   -0.1733   -1.0768 H   0  0  0  0  0  0  0  0  0  0  0  0
    5.0444   -2.5153   -1.9411 H   0  0  0  0  0  0  0  0  0  0  0  0
    5.0521   -3.1241   -0.2828 H   0  0  0  0  0  0  0  0  0  0  0  0
    7.0906   -1.7607    0.2081 H   0  0  0  0  0  0  0  0  0  0  0  0
    7.0824   -1.1502   -1.4478 H   0  0  0  0  0  0  0  0  0  0  0  0
    7.3195   -3.5034   -2.3101 H   0  0  0  0  0  0  0  0  0  0  0  0
    7.3296   -4.1090   -0.6637 H   0  0  0  0  0  0  0  0  0  0  0  0
    9.3498   -2.7334   -0.1536 H   0  0  0  0  0  0  0  0  0  0  0  0
    9.3395   -2.1171   -1.8290 H   0  0  0  0  0  0  0  0  0  0  0  0
   11.4501   -3.6409   -0.4970 H   0  0  0  0  0  0  0  0  0  0  0  0
   11.4415   -3.0211   -2.1710 H   0  0  0  0  0  0  0  0  0  0  0  0
   11.6392   -5.3591   -3.0222 H   0  0  0  0  0  0  0  0  0  0  0  0
   11.6456   -5.9694   -1.3773 H   0  0  0  0  0  0  0  0  0  0  0  0
   13.7033   -4.6117   -0.8751 H   0  0  0  0  0  0  0  0  0  0  0  0
   13.6966   -3.9955   -2.5289 H   0  0  0  0  0  0  0  0  0  0  0  0
   13.9179   -6.3283   -3.4011 H   0  0  0  0  0  0  0  0  0  0  0  0
   13.9226   -6.9465   -1.7457 H   0  0  0  0  0  0  0  0  0  0  0  0
   15.9593   -5.5815   -1.2422 H   0  0  0  0  0  0  0  0  0  0  0  0
   15.9546   -4.9635   -2.8968 H   0  0  0  0  0  0  0  0  0  0  0  0
   16.1730   -7.2993   -3.7690 H   0  0  0  0  0  0  0  0  0  0  0  0
   16.1798   -7.9160   -2.1137 H   0  0  0  0  0  0  0  0  0  0  0  0
   18.2160   -6.5494   -1.6136 H   0  0  0  0  0  0  0  0  0  0  0  0
   18.2096   -5.9349   -3.2698 H   0  0  0  0  0  0  0  0  0  0  0  0
   18.4290   -8.2708   -4.1382 H   0  0  0  0  0  0  0  0  0  0  0  0
   18.4333   -8.8865   -2.4825 H   0  0  0  0  0  0  0  0  0  0  0  0
   20.4698   -7.5233   -1.9799 H   0  0  0  0  0  0  0  0  0  0  0  0
   20.4652   -6.9053   -3.6348 H   0  0  0  0  0  0  0  0  0  0  0  0
   20.6843   -9.2394   -4.5079 H   0  0  0  0  0  0  0  0  0  0  0  0
   20.6869   -9.8586   -2.8535 H   0  0  0  0  0  0  0  0  0  0  0  0
   22.7234   -8.4971   -2.3462 H   0  0  0  0  0  0  0  0  0  0  0  0
   22.7205   -7.8757   -3.9998 H   0  0  0  0  0  0  0  0  0  0  0  0
   22.9396  -10.2080   -4.8776 H   0  0  0  0  0  0  0  0  0  0  0  0
   22.9405  -10.8307   -3.2245 H   0  0  0  0  0  0  0  0  0  0  0  0
   24.9770   -9.4710   -2.7126 H   0  0  0  0  0  0  0  0  0  0  0  0
   24.9757   -8.8460   -4.3648 H   0  0  0  0  0  0  0  0  0  0  0  0
   25.1928  -11.1783   -5.2463 H   0  0  0  0  0  0  0  0  0  0  0  0
   25.1961  -11.8021   -3.5936 H   0  0  0  0  0  0  0  0  0  0  0  0
   27.2325  -10.4403   -3.0838 H   0  0  0  0  0  0  0  0  0  0  0  0
   27.2291   -9.8165   -4.7366 H   0  0  0  0  0  0  0  0  0  0  0  0
   27.4482  -12.1476   -5.6177 H   0  0  0  0  0  0  0  0  0  0  0  0
   27.4495  -12.7726   -3.9654 H   0  0  0  0  0  0  0  0  0  0  0  0
   29.4858  -11.4120   -3.4523 H   0  0  0  0  0  0  0  0  0  0  0  0
   29.4846  -10.7870   -5.1046 H   0  0  0  0  0  0  0  0  0  0  0  0
   29.7027  -13.1185   -5.9866 H   0  0  0  0  0  0  0  0  0  0  0  0
   29.7039  -13.7434   -4.3343 H   0  0  0  0  0  0  0  0  0  0  0  0
   31.7403  -12.3828   -3.8213 H   0  0  0  0  0  0  0  0  0  0  0  0
   31.7390  -11.7579   -5.4735 H   0  0  0  0  0  0  0  0  0  0  0  0
   31.9571  -14.0893   -6.3555 H   0  0  0  0  0  0  0  0  0  0  0  0
   31.9583  -14.7143   -4.7033 H   0  0  0  0  0  0  0  0  0  0  0  0
   33.9947  -13.3537   -4.1902 H   0  0  0  0  0  0  0  0  0  0  0  0
   33.9934  -12.7287   -5.8425 H   0  0  0  0  0  0  0  0  0  0  0  0
   34.2115  -15.0601   -6.7245 H   0  0  0  0  0  0  0  0  0  0  0  0
   34.2128  -15.6851   -5.0722 H   0  0  0  0  0  0  0  0  0  0  0  0
   36.2493  -14.3260   -4.5589 H   0  0  0  0  0  0  0  0  0  0  0  0
   36.2476  -13.6987   -6.2103 H   0  0  0  0  0  0  0  0  0  0  0  0
   36.4657  -16.0289   -7.0956 H   0  0  0  0  0  0  0  0  0  0  0  0
   36.4674  -16.6561   -5.4442 H   0  0  0  0  0  0  0  0  0  0  0  0
   38.5037  -15.2961   -4.9297 H   0  0  0  0  0  0  0  0  0  0  0  0
   38.5020  -14.6688   -6.5811 H   0  0  0  0  0  0  0  0  0  0  0  0
   38.7201  -16.9990   -7.4664 H   0  0  0  0  0  0  0  0  0  0  0  0
   38.7218  -17.6263   -5.8150 H   0  0  0  0  0  0  0  0  0  0  0  0
   40.7583  -16.2676   -5.3003 H   0  0  0  0  0  0  0  0  0  0  0  0
   40.7562  -15.6381   -6.9508 H   0  0  0  0  0  0  0  0  0  0  0  0
   40.9753  -17.9662   -7.8399 H   0  0  0  0  0  0  0  0  0  0  0  0
   40.9753  -18.5969   -6.1898 H   0  0  0  0  0  0  0  0  0  0  0  0
   43.0115  -17.2373   -5.6709 H   0  0  0  0  0  0  0  0  0  0  0  0
   43.0118  -16.6088   -7.3218 H   0  0  0  0  0  0  0  0  0  0  0  0
   43.2289  -18.9393   -8.2081 H   0  0  0  0  0  0  0  0  0  0  0  0
   43.2306  -19.5666   -6.5567 H   0  0  0  0  0  0  0  0  0  0  0  0
   45.2671  -18.2079   -6.0419 H   0  0  0  0  0  0  0  0  0  0  0  0
   45.2650  -17.5784   -7.6925 H   0  0  0  0  0  0  0  0  0  0  0  0
   45.4841  -19.9065   -8.5815 H   0  0  0  0  0  0  0  0  0  0  0  0
   45.4842  -20.5372   -6.9315 H   0  0  0  0  0  0  0  0  0  0  0  0
   47.5205  -19.1790   -6.4123 H   0  0  0  0  0  0  0  0  0  0  0  0
   47.5205  -18.5482   -8.0624 H   0  0  0  0  0  0  0  0  0  0  0  0
   47.7386  -20.8766   -8.9524 H   0  0  0  0  0  0  0  0  0  0  0  0
   47.7386  -21.5073   -7.3023 H   0  0  0  0  0  0  0  0  0  0  0  0
   49.7749  -20.1491   -6.7831 H   0  0  0  0  0  0  0  0  0  0  0  0
   49.7749  -19.5184   -8.4332 H   0  0  0  0  0  0  0  0  0  0  0  0
   49.9930  -21.8468   -9.3232 H   0  0  0  0  0  0  0  0  0  0  0  0
   49.9930  -22.4775   -7.6731 H   0  0  0  0  0  0  0  0  0  0  0  0
   52.0293  -21.1192   -7.1539 H   0  0  0  0  0  0  0  0  0  0  0  0
   52.0293  -20.4885   -8.8040 H   0  0  0  0  0  0  0  0  0  0  0  0
   52.2484  -22.8160   -9.6945 H   0  0  0  0  0  0  0  0  0  0  0  0
   52.2463  -23.4480   -8.0449 H   0  0  0  0  0  0  0  0  0  0  0  0
   54.2828  -22.0924   -7.5222 H   0  0  0  0  0  0  0  0  0  0  0  0
   54.2846  -21.4582   -9.1709 H   0  0  0  0  0  0  0  0  0  0  0  0
   54.5037  -23.7839  -10.0661 H   0  0  0  0  0  0  0  0  0  0  0  0
   54.4999  -24.4193   -8.4178 H   0  0  0  0  0  0  0  0  0  0  0  0
   56.5362  -23.0641   -7.8906 H   0  0  0  0  0  0  0  0  0  0  0  0
   56.5400  -22.4287   -9.5389 H   0  0  0  0  0  0  0  0  0  0  0  0
   56.7570  -24.7556  -10.4346 H   0  0  0  0  0  0  0  0  0  0  0  0
   56.7553  -25.3898   -8.7858 H   0  0  0  0  0  0  0  0  0  0  0  0
   58.7919  -24.0348   -8.2617 H   0  0  0  0  0  0  0  0  0  0  0  0
   58.7932  -23.3983   -9.9096 H   0  0  0  0  0  0  0  0  0  0  0  0
   59.0102  -25.7245  -10.8071 H   0  0  0  0  0  0  0  0  0  0  0  0
   59.0110  -26.3598   -9.1587 H   0  0  0  0  0  0  0  0  0  0  0  0
   61.0471  -25.0012   -8.6370 H   0  0  0  0  0  0  0  0  0  0  0  0
   61.0467  -24.3682  -10.2862 H   0  0  0  0  0  0  0  0  0  0  0  0
   61.2658  -26.6945  -11.1800 H   0  0  0  0  0  0  0  0  0  0  0  0
   61.2642  -27.3287   -9.5312 H   0  0  0  0  0  0  0  0  0  0  0  0
   63.3003  -25.9708   -9.0076 H   0  0  0  0  0  0  0  0  0  0  0  0
   63.3024  -25.3389  -10.6572 H   0  0  0  0  0  0  0  0  0  0  0  0
   63.5205  -27.6668  -11.5487 H   0  0  0  0  0  0  0  0  0  0  0  0
   63.5183  -28.2986   -9.8990 H   0  0  0  0  0  0  0  0  0  0  0  0
   65.5545  -26.9403   -9.3768 H   0  0  0  0  0  0  0  0  0  0  0  0
   65.5570  -26.3106  -11.0273 H   0  0  0  0  0  0  0  0  0  0  0  0
   65.7751  -28.6397  -11.9155 H   0  0  0  0  0  0  0  0  0  0  0  0
   65.7725  -29.2694  -10.2650 H   0  0  0  0  0  0  0  0  0  0  0  0
   67.8089  -27.9118   -9.7439 H   0  0  0  0  0  0  0  0  0  0  0  0
   67.8115  -27.2822  -11.3944 H   0  0  0  0  0  0  0  0  0  0  0  0
   68.0295  -29.6113  -12.2825 H   0  0  0  0  0  0  0  0  0  0  0  0
   68.0269  -30.2409  -10.6320 H   0  0  0  0  0  0  0  0  0  0  0  0
   70.0633  -28.8834  -10.1110 H   0  0  0  0  0  0  0  0  0  0  0  0
   70.0659  -28.2538  -11.7615 H   0  0  0  0  0  0  0  0  0  0  0  0
   70.2839  -30.5829  -12.6496 H   0  0  0  0  0  0  0  0  0  0  0  0
   70.2813  -31.2125  -10.9991 H   0  0  0  0  0  0  0  0  0  0  0  0
   72.3177  -29.8550  -10.4780 H   0  0  0  0  0  0  0  0  0  0  0  0
   72.3203  -29.2254  -12.1285 H   0  0  0  0  0  0  0  0  0  0  0  0
   72.5383  -31.5545  -13.0167 H   0  0  0  0  0  0  0  0  0  0  0  0
   72.5357  -32.1841  -11.3662 H   0  0  0  0  0  0  0  0  0  0  0  0
   74.5721  -30.8266  -10.8451 H   0  0  0  0  0  0  0  0  0  0  0  0
   74.5747  -30.1970  -12.4956 H   0  0  0  0  0  0  0  0  0  0  0  0
   74.7928  -32.5261  -13.3837 H   0  0  0  0  0  0  0  0  0  0  0  0
   74.7901  -33.1557  -11.7332 H   0  0  0  0  0  0  0  0  0  0  0  0
   76.8263  -31.7968  -11.2124 H   0  0  0  0  0  0  0  0  0  0  0  0
   76.8293  -31.1694  -12.8638 H   0  0  0  0  0  0  0  0  0  0  0  0
   77.0474  -33.4998  -13.7486 H   0  0  0  0  0  0  0  0  0  0  0  0
   77.0443  -34.1271  -12.0973 H   0  0  0  0  0  0  0  0  0  0  0  0
   79.0807  -32.7690  -11.5776 H   0  0  0  0  0  0  0  0  0  0  0  0
   79.0837  -32.1417  -13.2290 H   0  0  0  0  0  0  0  0  0  0  0  0
   79.3018  -34.4721  -14.1138 H   0  0  0  0  0  0  0  0  0  0  0  0
   79.2987  -35.0994  -12.4624 H   0  0  0  0  0  0  0  0  0  0  0  0
   81.3351  -33.7414  -11.9428 H   0  0  0  0  0  0  0  0  0  0  0  0
   81.3382  -33.1141  -13.5942 H   0  0  0  0  0  0  0  0  0  0  0  0
   81.5564  -35.4445  -14.4790 H   0  0  0  0  0  0  0  0  0  0  0  0
   81.5533  -36.0717  -12.8276 H   0  0  0  0  0  0  0  0  0  0  0  0
   83.5898  -34.7126  -12.3084 H   0  0  0  0  0  0  0  0  0  0  0  0
   83.5933  -34.0876  -13.9606 H   0  0  0  0  0  0  0  0  0  0  0  0
   83.8117  -36.4193  -14.8422 H   0  0  0  0  0  0  0  0  0  0  0  0
   83.8082  -37.0444  -13.1899 H   0  0  0  0  0  0  0  0  0  0  0  0
   85.8459  -35.6871  -12.6725 H   0  0  0  0  0  0  0  0  0  0  0  0
   85.8493  -35.0623  -14.3242 H   0  0  0  0  0  0  0  0  0  0  0  0
   86.0689  -37.3958  -15.2060 H   0  0  0  0  0  0  0  0  0  0  0  0
   86.0675  -38.0197  -13.5534 H   0  0  0  0  0  0  0  0  0  0  0  0
   88.1047  -36.6613  -13.0387 H   0  0  0  0  0  0  0  0  0  0  0  0
   88.1057  -36.0356  -14.6894 H   0  0  0  0  0  0  0  0  0  0  0  0
   88.3416  -38.3687  -15.5742 H   0  0  0  0  0  0  0  0  0  0  0  0
   88.3407  -38.9948  -13.9226 H   0  0  0  0  0  0  0  0  0  0  0  0
   90.3879  -37.0245  -15.0678 H   0  0  0  0  0  0  0  0  0  0  0  0
   90.6567  -38.7546  -14.7748 H   0  0  0  0  0  0  0  0  0  0  0  0
   90.3870  -37.6534  -13.4088 H   0  0  0  0  0  0  0  0  0  0  0  0
  1  2  2  0  0  0  0
  2  3  1  0  0  0  0
  2 81  1  0  0  0  0
  3  4  1  0  0  0  0
  3 82  1  0  0  0  0
  3 83  1  0  0  0  0
  4  5  1  0  0  0  0
  4 84  1  0  0  0  0
  4 85  1  0  0  0  0
  5  6  1  0  0  0  0
  5 86  1  0  0  0  0
  5 87  1  0  0  0  0
  6  7  1  0  0  0  0
  6 88  1  0  0  0  0
  6 89  1  0  0  0  0
  7  8  1  0  0  0  0
  7 90  1  0  0  0  0
  7 91  1  0  0  0  0
  8  9  1  0  0  0  0
  8 92  1  0  0  0  0
  8 93  1  0  0  0  0
  9 10  1  0  0  0  0
 10 11  1  0  0  0  0
 10 94  1  0  0  0  0
 10 95  1  0  0  0  0
 11 12  1  0  0  0  0
 11 96  1  0  0  0  0
 11 97  1  0  0  0  0
 12 13  1  0  0  0  0
 12 98  1  0  0  0  0
 12 99  1  0  0  0  0
 13 14  1  0  0  0  0
 13100  1  0  0  0  0
 13101  1  0  0  0  0
 14 15  1  0  0  0  0
 14102  1  0  0  0  0
 14103  1  0  0  0  0
 15 16  1  0  0  0  0
 15104  1  0  0  0  0
 15105  1  0  0  0  0
 16 17  1  0  0  0  0
 16106  1  0  0  0  0
 16107  1  0  0  0  0
 17 18  1  0  0  0  0
 17108  1  0  0  0  0
 17109  1  0  0  0  0
 18 19  1  0  0  0  0
 18110  1  0  0  0  0
 18111  1  0  0  0  0
 19 20  1  0  0  0  0
 19112  1  0  0  0  0
 19113  1  0  0  0  0
 20 21  1  0  0  0  0
 20114  1  0  0  0  0
 20115  1  0  0  0  0
 21 22  1  0  0  0  0
 21116  1  0  0  0  0
 21117  1  0  0  0  0
 22 23  1  0  0  0  0
 22118  1  0  0  0  0
 22119  1  0  0  0  0
 23 24  1  0  0  0  0
 23120  1  0  0  0  0
 23121  1  0  0  0  0
 24 25  1  0  0  0  0
 24122  1  0  0  0  0
 24123  1  0  0  0  0
 25 26  1  0  0  0  0
 25124  1  0  0  0  0
 25125  1  0  0  0  0
 26 27  1  0  0  0  0
 26126  1  0  0  0  0
 26127  1  0  0  0  0
 27 28  1  0  0  0  0
 27128  1  0  0  0  0
 27129  1  0  0  0  0
 28 29  1  0  0  0  0
 28130  1  0  0  0  0
 28131  1  0  0  0  0
 29 30  1  0  0  0  0
 29132  1  0  0  0  0
 29133  1  0  0  0  0
 30 31  1  0  0  0  0
 30134  1  0  0  0  0
 30135  1  0  0  0  0
 31 32  1  0  0  0  0
 31136  1  0  0  0  0
 31137  1  0  0  0  0
 32 33  1  0  0  0  0
 32138  1  0  0  0  0
 32139  1  0  0  0  0
 33 34  1  0  0  0  0
 33140  1  0  0  0  0
 33141  1  0  0  0  0
 34 35  1  0  0  0  0
 34142  1  0  0  0  0
 34143  1  0  0  0  0
 35 36  1  0  0  0  0
 35144  1  0  0  0  0
 35145  1  0  0  0  0
 36 37  1  0  0  0  0
 36146  1  0  0  0  0
 36147  1  0  0  0  0
 37 38  1  0  0  0  0
 37148  1  0  0  0  0
 37149  1  0  0  0  0
 38 39  1  0  0  0  0
 38150  1  0  0  0  0
 38151  1  0  0  0  0
 39 40  1  0  0  0  0
 39152  1  0  0  0  0
 39153  1  0  0  0  0
 40 41  1  0  0  0  0
 40154  1  0  0  0  0
 40155  1  0  0  0  0
 41 42  1  0  0  0  0
 41156  1  0  0  0  0
 41157  1  0  0  0  0
 42 43  1  0  0  0  0
 42158  1  0  0  0  0
 42159  1  0  0  0  0
 43 44  1  0  0  0  0
 43160  1  0  0  0  0
 43161  1  0  0  0  0
 44 45  1  0  0  0  0
 44162  1  0  0  0  0
 44163  1  0  0  0  0
 45 46  1  0  0  0  0
 45164  1  0  0  0  0
 45165  1  0  0  0  0
 46 47  1  0  0  0  0
 46166  1  0  0  0  0
 46167  1  0  0  0  0
 47 48  1  0  0  0  0
 47168  1  0  0  0  0
 47169  1  0  0  0  0
 48 49  1  0  0  0  0
 48170  1  0  0  0  0
 48171  1  0  0  0  0
 49 50  1  0  0  0  0
 49172  1  0  0  0  0
 49173  1  0  0  0  0
 50 51  1  0  0  0  0
 50174  1  0  0  0  0
 50175  1  0  0  0  0
 51 52  1  0  0  0  0
 51176  1  0  0  0  0
 51177  1  0  0  0  0
 52 53  1  0  0  0  0
 52178  1  0  0  0  0
 52179  1  0  0  0  0
 53 54  1  0  0  0  0
 53180  1  0  0  0  0
 53181  1  0  0  0  0
 54 55  1  0  0  0  0
 54182  1  0  0  0  0
 54183  1  0  0  0  0
 55 56  1  0  0  0  0
 55184  1  0  0  0  0
 55185  1  0  0  0  0
 56 57  1  0  0  0  0
 56186  1  0  0  0  0
 56187  1  0  0  0  0
 57 58  1  0  0  0  0
 57188  1  0  0  0  0
 57189  1  0  0  0  0
 58 59  1  0  0  0  0
 58190  1  0  0  0  0
 58191  1  0  0  0  0
 59 60  1  0  0  0  0
 59192  1  0  0  0  0
 59193  1  0  0  0  0
 60 61  1  0  0  0  0
 60194  1  0  0  0  0
 60195  1  0  0  0  0
 61 62  1  0  0  0  0
 61196  1  0  0  0  0
 61197  1  0  0  0  0
 62 63  1  0  0  0  0
 62198  1  0  0  0  0
 62199  1  0  0  0  0
 63 64  1  0  0  0  0
 63200  1  0  0  0  0
 63201  1  0  0  0  0
 64 65  1  0  0  0  0
 64202  1  0  0  0  0
 64203  1  0  0  0  0
 65 66  1  0  0  0  0
 65204  1  0  0  0  0
 65205  1  0  0  0  0
 66 67  1  0  0  0  0
 66206  1  0  0  0  0
 66207  1  0  0  0  0
 67 68  1  0  0  0  0
 67208  1  0  0  0  0
 67209  1  0  0  0  0
 68 69  1  0  0  0  0
 68210  1  0  0  0  0
 68211  1  0  0  0  0
 69 70  1  0  0  0  0
 69212  1  0  0  0  0
 69213  1  0  0  0  0
 70 71  1  0  0  0  0
 70214  1  0  0  0  0
 70215  1  0  0  0  0
 71 72  1  0  0  0  0
 71216  1  0  0  0  0
 71217  1  0  0  0  0
 72 73  1  0  0  0  0
 72218  1  0  0  0  0
 72219  1  0  0  0  0
 73 74  1  0  0  0  0
 73220  1  0  0  0  0
 73221  1  0  0  0  0
 74 75  1  0  0  0  0
 74222  1  0  0  0  0
 74223  1  0  0  0  0
 75 76  1  0  0  0  0
 75224  1  0  0  0  0
 75225  1  0  0  0  0
 76 77  1  0  0  0  0
 76226  1  0  0  0  0
 76227  1  0  0  0  0
 77 78  1  0  0  0  0
 77228  1  0  0  0  0
 77229  1  0  0  0  0
 78 79  1  0  0  0  0
 78230  1  0  0  0  0
 78231  1  0  0  0  0
 79 80  1  0  0  0  0
 79232  1  0  0  0  0
 79233  1  0  0  0  0
 80234  1  0  0  0  0
 80235  1  0  0  0  0
 80236  1  0  0  0  0
M  END
$$$$
