
 OpenBabel04232217013D

149148  0  0  0  0  0  0  0  0999 V2000
   22.4325   29.8849    0.9631 O   0  0  0  0  0  0  0  0  0  0  0  0
   21.8808   29.0677    1.9903 C   0  0  0  0  0  0  0  0  0  0  0  0
   22.5495   27.6963    1.9707 C   0  0  0  0  0  0  0  0  0  0  0  0
   21.9831   26.7722    3.0504 C   0  0  0  0  0  0  0  0  0  0  0  0
   22.6555   25.3968    3.0279 C   0  0  0  0  0  0  0  0  0  0  0  0
   22.0856   24.4816    4.1133 C   0  0  0  0  0  0  0  0  0  0  0  0
   22.7636   23.1100    4.1046 C   0  0  0  0  0  0  0  0  0  0  0  0
   22.2009   22.2177    5.2132 C   0  0  0  0  0  0  0  0  0  0  0  0
   22.8896   20.8521    5.2406 C   0  0  0  0  0  0  0  0  0  0  0  0
   22.3201   20.0279    6.3251 N   0  0  0  0  0  0  0  0  0  0  0  0
   22.7750   18.7426    6.0986 N   0  0  0  0  0  0  0  0  0  0  0  0
   22.0610   17.8135    6.8568 N   0  0  0  0  0  0  0  0  0  0  0  0
   22.8374   16.6066    6.9076 N   0  0  0  0  0  0  0  0  0  0  0  0
   24.2459   16.8294    7.0690 N   0  0  0  0  0  0  0  0  0  0  0  0
   24.5168   17.5111    8.2898 N   0  0  0  0  0  0  0  0  0  0  0  0
   24.0374   16.7595    9.4103 N   0  0  0  0  0  0  0  0  0  0  0  0
   24.5057   15.4031    9.3697 N   0  0  0  0  0  0  0  0  0  0  0  0
   25.9086   15.4261    9.6337 N   0  0  0  0  0  0  0  0  0  0  0  0
   26.1516   16.1676   10.8685 N   0  0  0  0  0  0  0  0  0  0  0  0
   25.6934   15.4457   12.0297 N   0  0  0  0  0  0  0  0  0  0  0  0
   26.3080   14.1666   12.1283 N   0  0  0  0  0  0  0  0  0  0  0  0
   27.7248   14.2500   12.2137 N   0  0  0  0  0  0  0  0  0  0  0  0
   28.1457   14.8049   13.4502 N   0  0  0  0  0  0  0  0  0  0  0  0
   27.7532   13.9345   14.5330 N   0  0  0  0  0  0  0  0  0  0  0  0
   28.4193   12.6685   14.5218 N   0  0  0  0  0  0  0  0  0  0  0  0
   29.8212   12.8215   14.6047 N   0  0  0  0  0  0  0  0  0  0  0  0
   30.1535   13.3099   15.9441 N   0  0  0  0  0  0  0  0  0  0  0  0
   29.4945   12.5153   16.9711 N   0  0  0  0  0  0  0  0  0  0  0  0
   29.9813   11.1756   16.9411 N   0  0  0  0  0  0  0  0  0  0  0  0
   31.4286   11.2507   16.9930 N   0  0  0  0  0  0  0  0  0  0  0  0
   31.8287   11.9722   18.2050 N   0  0  0  0  0  0  0  0  0  0  0  0
   31.3170   11.2950   19.3429 N   0  0  0  0  0  0  0  0  0  0  0  0
   31.9475    9.9881   19.4695 N   0  0  0  0  0  0  0  0  0  0  0  0
   33.3923   10.1163   19.4423 N   0  0  0  0  0  0  0  0  0  0  0  0
   33.7648   10.8473   20.6029 N   0  0  0  0  0  0  0  0  0  0  0  0
   33.2642   10.0788   21.7557 N   0  0  0  0  0  0  0  0  0  0  0  0
   33.6693    8.6756   21.6359 N   0  0  0  0  0  0  0  0  0  0  0  0
   35.0846    8.5207   21.7954 N   0  0  0  0  0  0  0  0  0  0  0  0
   35.4943    9.2144   22.9678 N   0  0  0  0  0  0  0  0  0  0  0  0
   34.9269    8.4648   24.0912 N   0  0  0  0  0  0  0  0  0  0  0  0
   35.1612    7.0317   23.8790 N   0  0  0  0  0  0  0  0  0  0  0  0
   36.5655    6.7802   23.8938 N   0  0  0  0  0  0  0  0  0  0  0  0
   37.1959    7.1697   25.1299 N   0  0  0  0  0  0  0  0  0  0  0  0
   36.6562    6.4951   26.2567 N   0  0  0  0  0  0  0  0  0  0  0  0
   37.0529    5.1332   26.2961 N   0  0  0  0  0  0  0  0  0  0  0  0
   38.4780    5.0103   26.3640 N   0  0  0  0  0  0  0  0  0  0  0  0
   38.9754    5.5834   27.5862 N   0  0  0  0  0  0  0  0  0  0  0  0
   38.4137    4.8926   28.7114 N   0  0  0  0  0  0  0  0  0  0  0  0
   38.8467    3.5166   28.6992 N   0  0  0  0  0  0  0  0  0  0  0  0
   40.2745    3.4782   28.6929 N   0  0  0  0  0  0  0  0  0  0  0  0
   40.7194    4.0823   29.9202 N   0  0  0  0  0  0  0  0  0  0  0  0
   39.9834    3.4165   30.9763 N   0  0  0  0  0  0  0  0  0  0  0  0
   40.2204    1.9921   30.7887 N   0  0  0  0  0  0  0  0  0  0  0  0
   41.6736    1.8377   30.6642 N   0  0  0  0  0  0  0  0  0  0  0  0
   42.2911    2.5329   31.8173 N   0  0  0  0  0  0  0  0  0  0  0  0
   41.7912    1.9402   33.0656 N   0  0  0  0  0  0  0  0  0  0  0  0
   42.1440    0.5148   33.1295 N   0  0  0  0  0  0  0  0  0  0  0  0
   43.5678    0.3635   32.8618 N   0  0  0  0  0  0  0  0  0  0  0  0
   44.3971    0.8621   33.9557 N   0  0  0  0  0  0  0  0  0  0  0  0
   44.0827    0.2139   35.2126 O   0  0  0  0  0  0  0  0  0  0  0  0
   43.5452    1.2080   36.1155 O   0  0  0  0  0  0  0  0  0  0  0  0
   42.9629    0.5859   37.2716 O   0  0  0  0  0  0  0  0  0  0  0  0
   43.8669    0.7004   38.3887 O   0  0  0  0  0  0  0  0  0  0  0  0
   43.3313   -0.0066   39.5145 O   0  0  0  0  0  0  0  0  0  0  0  0
   43.2575    0.8468   40.6719 O   0  0  0  0  0  0  0  0  0  0  0  0
   42.9280    0.0275   41.8045 O   0  0  0  0  0  0  0  0  0  0  0  0
   43.5780    0.4891   42.9945 O   0  0  0  0  0  0  0  0  0  0  0  0
   42.7149    0.2282   44.1177 O   0  0  0  0  0  0  0  0  0  0  0  0
   43.2737    0.8104   45.2977 O   0  0  0  0  0  0  0  0  0  0  0  0
   43.1941   -0.0997   46.4085 O   0  0  0  0  0  0  0  0  0  0  0  0
   43.2288    0.6759   47.6186 O   0  0  0  0  0  0  0  0  0  0  0  0
   42.4907    0.0367   48.6671 O   0  0  0  0  0  0  0  0  0  0  0  0
   43.2332    0.1353   49.9003 O   0  0  0  0  0  0  0  0  0  0  0  0
   42.4320   -0.3715   50.9800 O   0  0  0  0  0  0  0  0  0  0  0  0
   42.6249    0.4031   52.1802 O   0  0  0  0  0  0  0  0  0  0  0  0
   42.6393   -0.4899   53.3171 O   0  0  0  0  0  0  0  0  0  0  0  0
   43.0929    0.1975   54.4992 O   0  0  0  0  0  0  0  0  0  0  0  0
   42.1099    0.0912   55.5566 O   0  0  0  0  0  0  0  0  0  0  0  0
   42.7385    0.3520   56.8353 O   0  0  0  0  0  0  0  0  0  0  0  0
   42.2255   -0.5345   57.8582 O   0  0  0  0  0  0  0  0  0  0  0  0
   42.8253   -1.8484   57.7498 O   0  0  0  0  0  0  0  0  0  0  0  0
   21.9918   30.7487    1.0242 H   0  0  0  0  0  0  0  0  0  0  0  0
   20.8040   28.9744    1.8175 H   0  0  0  0  0  0  0  0  0  0  0  0
   22.0441   29.5618    2.9535 H   0  0  0  0  0  0  0  0  0  0  0  0
   23.6313   27.8171    2.1077 H   0  0  0  0  0  0  0  0  0  0  0  0
   22.4208   27.2425    0.9803 H   0  0  0  0  0  0  0  0  0  0  0  0
   20.9030   26.6524    2.9016 H   0  0  0  0  0  0  0  0  0  0  0  0
   22.1239   27.2305    4.0370 H   0  0  0  0  0  0  0  0  0  0  0  0
   23.7356   25.5130    3.1780 H   0  0  0  0  0  0  0  0  0  0  0  0
   22.5129   24.9322    2.0448 H   0  0  0  0  0  0  0  0  0  0  0  0
   21.0062   24.3575    3.9614 H   0  0  0  0  0  0  0  0  0  0  0  0
   22.2211   24.9490    5.0963 H   0  0  0  0  0  0  0  0  0  0  0  0
   23.8446   23.2309    4.2427 H   0  0  0  0  0  0  0  0  0  0  0  0
   22.6130   22.6306    3.1293 H   0  0  0  0  0  0  0  0  0  0  0  0
   21.1229   22.0844    5.0514 H   0  0  0  0  0  0  0  0  0  0  0  0
   22.3260   22.7115    6.1831 H   0  0  0  0  0  0  0  0  0  0  0  0
   23.9697   20.9757    5.3854 H   0  0  0  0  0  0  0  0  0  0  0  0
   22.7351   20.3702    4.2633 H   0  0  0  0  0  0  0  0  0  0  0  0
   21.2998   20.1016    6.2176 H   0  0  0  0  0  0  0  0  0  0  0  0
   23.7278   18.6694    6.4813 H   0  0  0  0  0  0  0  0  0  0  0  0
   21.1076   17.6886    6.5087 H   0  0  0  0  0  0  0  0  0  0  0  0
   22.6835   16.0928    6.0338 H   0  0  0  0  0  0  0  0  0  0  0  0
   24.7239   17.2993    6.3043 H   0  0  0  0  0  0  0  0  0  0  0  0
   24.1231   18.4625    8.2750 H   0  0  0  0  0  0  0  0  0  0  0  0
   23.0265   16.7026    9.4298 H   0  0  0  0  0  0  0  0  0  0  0  0
   24.2971   15.0236    8.4351 H   0  0  0  0  0  0  0  0  0  0  0  0
   26.3488   15.9643    8.8765 H   0  0  0  0  0  0  0  0  0  0  0  0
   25.5797   17.0160   10.8012 H   0  0  0  0  0  0  0  0  0  0  0  0
   24.6714   15.3653   11.9862 H   0  0  0  0  0  0  0  0  0  0  0  0
   26.1059   13.5829   11.3221 H   0  0  0  0  0  0  0  0  0  0  0  0
   28.1388   14.7204   11.4017 H   0  0  0  0  0  0  0  0  0  0  0  0
   27.7363   15.7393   13.5816 H   0  0  0  0  0  0  0  0  0  0  0  0
   26.7588   13.7200   14.4626 H   0  0  0  0  0  0  0  0  0  0  0  0
   28.1136   12.0763   13.7387 H   0  0  0  0  0  0  0  0  0  0  0  0
   30.1573   13.4598   13.8734 H   0  0  0  0  0  0  0  0  0  0  0  0
   29.7579   14.2406   16.0615 H   0  0  0  0  0  0  0  0  0  0  0  0
   28.4718   12.5735   16.8085 H   0  0  0  0  0  0  0  0  0  0  0  0
   29.6758   10.7231   16.0696 H   0  0  0  0  0  0  0  0  0  0  0  0
   31.7257   11.8922   16.2655 H   0  0  0  0  0  0  0  0  0  0  0  0
   31.3973   12.9141   18.1073 H   0  0  0  0  0  0  0  0  0  0  0  0
   30.2843   11.2470   19.2914 H   0  0  0  0  0  0  0  0  0  0  0  0
   31.6650    9.3505   18.7192 H   0  0  0  0  0  0  0  0  0  0  0  0
   33.6679   10.6702   18.6370 H   0  0  0  0  0  0  0  0  0  0  0  0
   33.2674   11.7497   20.5271 H   0  0  0  0  0  0  0  0  0  0  0  0
   32.2320   10.1089   21.6578 H   0  0  0  0  0  0  0  0  0  0  0  0
   33.3515    8.2565   20.7479 H   0  0  0  0  0  0  0  0  0  0  0  0
   35.6132    8.8869   21.0113 H   0  0  0  0  0  0  0  0  0  0  0  0
   35.0855   10.1601   22.9019 H   0  0  0  0  0  0  0  0  0  0  0  0
   33.9068    8.6036   23.9825 H   0  0  0  0  0  0  0  0  0  0  0  0
   34.7995    6.8446   22.9139 H   0  0  0  0  0  0  0  0  0  0  0  0
   37.0240    7.3172   23.1620 H   0  0  0  0  0  0  0  0  0  0  0  0
   37.0892    8.1544   25.2972 H   0  0  0  0  0  0  0  0  0  0  0  0
   35.6494    6.5481   26.2057 H   0  0  0  0  0  0  0  0  0  0  0  0
   36.6790    4.6699   25.4617 H   0  0  0  0  0  0  0  0  0  0  0  0
   38.9103    5.4776   25.5551 H   0  0  0  0  0  0  0  0  0  0  0  0
   38.7212    6.5809   27.6233 H   0  0  0  0  0  0  0  0  0  0  0  0
   37.3885    4.9375   28.6520 H   0  0  0  0  0  0  0  0  0  0  0  0
   38.5456    3.0982   27.8284 H   0  0  0  0  0  0  0  0  0  0  0  0
   40.5576    4.0758   27.9269 H   0  0  0  0  0  0  0  0  0  0  0  0
   40.3209    5.0140   29.8520 H   0  0  0  0  0  0  0  0  0  0  0  0
   39.0278    3.5510   30.6278 H   0  0  0  0  0  0  0  0  0  0  0  0
   39.8254    1.8856   29.8257 H   0  0  0  0  0  0  0  0  0  0  0  0
   41.8488    2.4557   29.8324 H   0  0  0  0  0  0  0  0  0  0  0  0
   41.8436    3.4787   31.7208 H   0  0  0  0  0  0  0  0  0  0  0  0
   40.7595    2.0198   32.9531 H   0  0  0  0  0  0  0  0  0  0  0  0
   41.6366    0.1123   32.3207 H   0  0  0  0  0  0  0  0  0  0  0  0
   43.7176    0.9718   32.0373 H   0  0  0  0  0  0  0  0  0  0  0  0
   44.0318    1.8000   34.1671 H   0  0  0  0  0  0  0  0  0  0  0  0
   42.1404   -2.3050   58.2672 H   0  0  0  0  0  0  0  0  0  0  0  0
  1  2  1  0  0  0  0
  1 82  1  0  0  0  0
  2  3  1  0  0  0  0
  2 83  1  0  0  0  0
  2 84  1  0  0  0  0
  3  4  1  0  0  0  0
  3 85  1  0  0  0  0
  3 86  1  0  0  0  0
  4  5  1  0  0  0  0
  4 87  1  0  0  0  0
  4 88  1  0  0  0  0
  5  6  1  0  0  0  0
  5 89  1  0  0  0  0
  5 90  1  0  0  0  0
  6  7  1  0  0  0  0
  6 91  1  0  0  0  0
  6 92  1  0  0  0  0
  7  8  1  0  0  0  0
  7 93  1  0  0  0  0
  7 94  1  0  0  0  0
  8  9  1  0  0  0  0
  8 95  1  0  0  0  0
  8 96  1  0  0  0  0
  9 10  1  0  0  0  0
  9 97  1  0  0  0  0
  9 98  1  0  0  0  0
 10 11  1  0  0  0  0
 10 99  1  0  0  0  0
 11 12  1  0  0  0  0
 11100  1  0  0  0  0
 12 13  1  0  0  0  0
 12101  1  0  0  0  0
 13 14  1  0  0  0  0
 13102  1  0  0  0  0
 14 15  1  0  0  0  0
 14103  1  0  0  0  0
 15 16  1  0  0  0  0
 15104  1  0  0  0  0
 16 17  1  0  0  0  0
 16105  1  0  0  0  0
 17 18  1  0  0  0  0
 17106  1  0  0  0  0
 18 19  1  0  0  0  0
 18107  1  0  0  0  0
 19 20  1  0  0  0  0
 19108  1  0  0  0  0
 20 21  1  0  0  0  0
 20109  1  0  0  0  0
 21 22  1  0  0  0  0
 21110  1  0  0  0  0
 22 23  1  0  0  0  0
 22111  1  0  0  0  0
 23 24  1  0  0  0  0
 23112  1  0  0  0  0
 24 25  1  0  0  0  0
 24113  1  0  0  0  0
 25 26  1  0  0  0  0
 25114  1  0  0  0  0
 26 27  1  0  0  0  0
 26115  1  0  0  0  0
 27 28  1  0  0  0  0
 27116  1  0  0  0  0
 28 29  1  0  0  0  0
 28117  1  0  0  0  0
 29 30  1  0  0  0  0
 29118  1  0  0  0  0
 30 31  1  0  0  0  0
 30119  1  0  0  0  0
 31 32  1  0  0  0  0
 31120  1  0  0  0  0
 32 33  1  0  0  0  0
 32121  1  0  0  0  0
 33 34  1  0  0  0  0
 33122  1  0  0  0  0
 34 35  1  0  0  0  0
 34123  1  0  0  0  0
 35 36  1  0  0  0  0
 35124  1  0  0  0  0
 36 37  1  0  0  0  0
 36125  1  0  0  0  0
 37 38  1  0  0  0  0
 37126  1  0  0  0  0
 38 39  1  0  0  0  0
 38127  1  0  0  0  0
 39 40  1  0  0  0  0
 39128  1  0  0  0  0
 40 41  1  0  0  0  0
 40129  1  0  0  0  0
 41 42  1  0  0  0  0
 41130  1  0  0  0  0
 42 43  1  0  0  0  0
 42131  1  0  0  0  0
 43 44  1  0  0  0  0
 43132  1  0  0  0  0
 44 45  1  0  0  0  0
 44133  1  0  0  0  0
 45 46  1  0  0  0  0
 45134  1  0  0  0  0
 46 47  1  0  0  0  0
 46135  1  0  0  0  0
 47 48  1  0  0  0  0
 47136  1  0  0  0  0
 48 49  1  0  0  0  0
 48137  1  0  0  0  0
 49 50  1  0  0  0  0
 49138  1  0  0  0  0
 50 51  1  0  0  0  0
 50139  1  0  0  0  0
 51 52  1  0  0  0  0
 51140  1  0  0  0  0
 52 53  1  0  0  0  0
 52141  1  0  0  0  0
 53 54  1  0  0  0  0
 53142  1  0  0  0  0
 54 55  1  0  0  0  0
 54143  1  0  0  0  0
 55 56  1  0  0  0  0
 55144  1  0  0  0  0
 56 57  1  0  0  0  0
 56145  1  0  0  0  0
 57 58  1  0  0  0  0
 57146  1  0  0  0  0
 58 59  1  0  0  0  0
 58147  1  0  0  0  0
 59 60  1  0  0  0  0
 59148  1  0  0  0  0
 60 61  1  0  0  0  0
 61 62  1  0  0  0  0
 62 63  1  0  0  0  0
 63 64  1  0  0  0  0
 64 65  1  0  0  0  0
 65 66  1  0  0  0  0
 66 67  1  0  0  0  0
 67 68  1  0  0  0  0
 68 69  1  0  0  0  0
 69 70  1  0  0  0  0
 70 71  1  0  0  0  0
 71 72  1  0  0  0  0
 72 73  1  0  0  0  0
 73 74  1  0  0  0  0
 74 75  1  0  0  0  0
 75 76  1  0  0  0  0
 76 77  1  0  0  0  0
 77 78  1  0  0  0  0
 78 79  1  0  0  0  0
 79 80  1  0  0  0  0
 80 81  1  0  0  0  0
 81149  1  0  0  0  0
M  END
$$$$
