
 OpenBabel04232216473D

 48 49  0  0  0  0  0  0  0  0999 V2000
    4.3019   -0.7395   -0.3206 C   0  0  0  0  0  0  0  0  0  0  0  0
    4.6685   -1.4182    1.0140 C   0  0  0  0  0  0  0  0  0  0  0  0
    3.4255   -1.6589    1.7946 C   0  0  0  0  0  0  0  0  0  0  0  0
    2.9977   -1.0336    2.9202 C   0  0  0  0  0  0  0  0  0  0  0  0
    1.5784   -1.2896    3.2079 N   0  0  0  0  0  0  0  0  0  0  0  0
    0.5491   -0.9366    4.2227 C   0  0  0  0  0  0  0  0  0  0  0  0
    0.1270   -1.9207    5.4132 C   0  0  0  0  0  0  0  0  0  0  0  0
    0.9461   -2.8156    6.4464 C   0  0  0  0  0  0  0  0  0  0  0  0
    2.4776   -2.8566    6.5380 C   0  0  0  0  0  0  0  0  0  0  0  0
    2.8968   -2.2285    5.2867 C   0  0  0  0  0  0  0  0  0  0  0  0
    4.2135   -1.6259    5.0573 C   0  0  0  0  0  0  0  0  0  0  0  0
    4.1146   -0.6427    3.8946 C   0  0  0  0  0  0  0  0  0  0  0  0
    5.1690    0.2160    3.6899 C   0  0  0  0  0  0  0  0  0  0  0  0
    5.2044    1.1529    2.6444 N   0  0  0  0  0  0  0  0  0  0  0  0
    6.5396   -0.1003    4.2765 C   0  0  0  0  0  0  0  0  0  0  0  0
    6.7752   -0.6678    5.6756 C   0  0  0  0  0  0  0  0  0  0  0  0
    7.4795   -0.4515    3.3513 C   0  0  0  0  0  0  0  0  0  0  0  0
    7.4555   -1.8953    3.0102 C   0  0  0  0  0  0  0  0  0  0  0  0
    8.4397   -2.7368    3.7769 C   0  0  0  0  0  0  0  0  0  0  0  0
    6.5596   -2.3963    2.1192 C   0  0  0  0  0  0  0  0  0  0  0  0
    5.9257   -1.6199    1.1517 N   0  0  0  0  0  0  0  0  0  0  0  0
    3.2195   -0.5760   -0.4016 H   0  0  0  0  0  0  0  0  0  0  0  0
    4.6084   -1.3870   -1.1419 H   0  0  0  0  0  0  0  0  0  0  0  0
    4.7985    0.2293   -0.3937 H   0  0  0  0  0  0  0  0  0  0  0  0
    2.6903   -2.1950    1.1921 H   0  0  0  0  0  0  0  0  0  0  0  0
    1.1055   -1.6249    2.3686 H   0  0  0  0  0  0  0  0  0  0  0  0
    0.6355    0.1013    4.5617 H   0  0  0  0  0  0  0  0  0  0  0  0
   -0.3864   -0.9214    3.6321 H   0  0  0  0  0  0  0  0  0  0  0  0
   -0.6255   -2.6064    4.9977 H   0  0  0  0  0  0  0  0  0  0  0  0
   -0.4709   -1.2673    6.0704 H   0  0  0  0  0  0  0  0  0  0  0  0
    0.5921   -2.5701    7.4553 H   0  0  0  0  0  0  0  0  0  0  0  0
    0.6271   -3.8514    6.2744 H   0  0  0  0  0  0  0  0  0  0  0  0
    2.8644   -3.8784    6.6042 H   0  0  0  0  0  0  0  0  0  0  0  0
    2.8569   -2.2947    7.3973 H   0  0  0  0  0  0  0  0  0  0  0  0
    2.3266   -1.3073    5.3457 H   0  0  0  0  0  0  0  0  0  0  0  0
    2.6430   -2.9201    4.4736 H   0  0  0  0  0  0  0  0  0  0  0  0
    4.9366   -2.4137    4.8524 H   0  0  0  0  0  0  0  0  0  0  0  0
    4.4239   -1.0633    5.9689 H   0  0  0  0  0  0  0  0  0  0  0  0
    5.4655    0.6371    1.8001 H   0  0  0  0  0  0  0  0  0  0  0  0
    6.0017    1.7743    2.7844 H   0  0  0  0  0  0  0  0  0  0  0  0
    6.1550   -0.2021    6.4452 H   0  0  0  0  0  0  0  0  0  0  0  0
    7.8131   -0.5163    5.9902 H   0  0  0  0  0  0  0  0  0  0  0  0
    6.6324   -1.7546    5.7237 H   0  0  0  0  0  0  0  0  0  0  0  0
    7.5185    0.0907    2.4058 H   0  0  0  0  0  0  0  0  0  0  0  0
    7.9566   -3.3085    4.5755 H   0  0  0  0  0  0  0  0  0  0  0  0
    9.2178   -2.1144    4.2426 H   0  0  0  0  0  0  0  0  0  0  0  0
    8.9653   -3.4294    3.1100 H   0  0  0  0  0  0  0  0  0  0  0  0
    6.5050   -3.4566    1.9636 H   0  0  0  0  0  0  0  0  0  0  0  0
  1  2  1  0  0  0  0
  1 22  1  0  0  0  0
  1 23  1  0  0  0  0
  1 24  1  0  0  0  0
  2  3  1  0  0  0  0
  2 21  2  0  0  0  0
  3  4  2  0  0  0  0
  3 25  1  0  0  0  0
  4  5  1  0  0  0  0
  4 12  1  0  0  0  0
  5  6  1  0  0  0  0
  5 26  1  0  0  0  0
  6  7  1  0  0  0  0
  6 27  1  0  0  0  0
  6 28  1  0  0  0  0
  7  8  1  0  0  0  0
  7 29  1  0  0  0  0
  7 30  1  0  0  0  0
  8  9  1  0  0  0  0
  8 31  1  0  0  0  0
  8 32  1  0  0  0  0
  9 10  1  0  0  0  0
  9 33  1  0  0  0  0
  9 34  1  0  0  0  0
 10 11  1  0  0  0  0
 10 35  1  0  0  0  0
 10 36  1  0  0  0  0
 11 12  1  0  0  0  0
 11 37  1  0  0  0  0
 11 38  1  0  0  0  0
 12 13  2  0  0  0  0
 13 14  1  0  0  0  0
 13 15  1  0  0  0  0
 14 39  1  0  0  0  0
 14 40  1  0  0  0  0
 15 16  1  0  0  0  0
 15 17  2  0  0  0  0
 16 41  1  0  0  0  0
 16 42  1  0  0  0  0
 16 43  1  0  0  0  0
 17 18  1  0  0  0  0
 17 44  1  0  0  0  0
 18 19  1  0  0  0  0
 18 20  2  0  0  0  0
 19 45  1  0  0  0  0
 19 46  1  0  0  0  0
 19 47  1  0  0  0  0
 20 21  1  0  0  0  0
 20 48  1  0  0  0  0
M  END
$$$$
