
 OpenBabel04232216493D

 57 58  0  0  1  0  0  0  0  0999 V2000
    0.7960   -0.0553    0.4273 C   0  0  0  0  0  0  0  0  0  0  0  0
    2.3225   -0.1936    0.3701 C   0  0  3  0  0  0  0  0  0  0  0  0
    2.8074   -1.6192   -0.0207 C   0  0  0  0  0  0  0  0  0  0  0  0
    1.9168   -2.4751   -0.9273 C   0  0  0  0  0  0  0  0  0  0  0  0
    2.0387   -2.1383   -2.4129 C   0  0  0  0  0  0  0  0  0  0  0  0
    0.9067   -2.7866   -3.2231 C   0  0  0  0  0  0  0  0  0  0  0  0
    0.5036   -1.9704   -4.4580 C   0  0  0  0  0  0  0  0  0  0  0  0
   -0.0568   -0.5841   -4.0891 C   0  0  0  0  0  0  0  0  0  0  0  0
    0.8168    0.5636   -4.6180 C   0  0  0  0  0  0  0  0  0  0  0  0
    0.4424    1.9302   -4.0037 C   0  0  0  0  0  0  0  0  0  0  0  0
    1.6061    2.6238   -3.2607 C   0  0  0  0  0  0  0  0  0  0  0  0
    1.2735    3.0277   -1.8130 C   0  0  0  0  0  0  0  0  0  0  0  0
    2.5356    3.3791   -1.0058 C   0  0  0  0  0  0  0  0  0  0  0  0
    3.0257    4.5133   -1.1009 O   0  0  0  0  0  0  0  0  0  0  0  0
    3.1581    2.3296   -0.0066 C   0  0  3  0  0  0  0  0  0  0  0  0
    4.6158    2.5935   -0.0334 N   0  0  0  0  0  0  0  0  0  0  0  0
    5.4042    1.8493    0.8179 C   0  0  0  0  0  0  0  0  0  0  0  0
    5.4168    0.6211    0.8642 O   0  0  0  0  0  0  0  0  0  0  0  0
    5.7924    2.6129    1.8898 N   0  0  0  0  0  0  0  0  0  0  0  0
    4.7905    2.6689    2.9293 C   0  0  0  0  0  0  0  0  0  0  0  0
    3.5332    3.4281    2.4603 C   0  0  0  0  0  0  0  0  0  0  0  0
    2.6071    2.6948    1.4356 C   0  0  0  0  0  0  0  0  0  0  0  0
    2.9207    0.8774   -0.5596 C   0  0  0  0  0  0  0  0  0  0  0  0
    0.3543   -0.8164    1.0765 H   0  0  0  0  0  0  0  0  0  0  0  0
    0.3482   -0.1499   -0.5683 H   0  0  0  0  0  0  0  0  0  0  0  0
    0.4917    0.9221    0.8146 H   0  0  0  0  0  0  0  0  0  0  0  0
    2.7228   -0.0382    1.3772 H   0  0  0  0  0  0  0  0  0  0  0  0
    2.9172   -2.1741    0.9200 H   0  0  0  0  0  0  0  0  0  0  0  0
    3.8194   -1.5738   -0.4435 H   0  0  0  0  0  0  0  0  0  0  0  0
    0.8749   -2.4114   -0.5988 H   0  0  0  0  0  0  0  0  0  0  0  0
    2.2037   -3.5259   -0.7947 H   0  0  0  0  0  0  0  0  0  0  0  0
    3.0032   -2.4993   -2.7931 H   0  0  0  0  0  0  0  0  0  0  0  0
    2.0447   -1.0567   -2.5454 H   0  0  0  0  0  0  0  0  0  0  0  0
    0.0139   -2.9247   -2.6007 H   0  0  0  0  0  0  0  0  0  0  0  0
    1.2189   -3.7900   -3.5368 H   0  0  0  0  0  0  0  0  0  0  0  0
   -0.2773   -2.5338   -4.9864 H   0  0  0  0  0  0  0  0  0  0  0  0
    1.3514   -1.8955   -5.1485 H   0  0  0  0  0  0  0  0  0  0  0  0
   -0.1767   -0.4948   -3.0035 H   0  0  0  0  0  0  0  0  0  0  0  0
   -1.0629   -0.4842   -4.5155 H   0  0  0  0  0  0  0  0  0  0  0  0
    0.6809    0.6120   -5.7065 H   0  0  0  0  0  0  0  0  0  0  0  0
    1.8749    0.3348   -4.4549 H   0  0  0  0  0  0  0  0  0  0  0  0
   -0.4411    1.8411   -3.3619 H   0  0  0  0  0  0  0  0  0  0  0  0
    0.1426    2.5860   -4.8329 H   0  0  0  0  0  0  0  0  0  0  0  0
    1.8718    3.5360   -3.8108 H   0  0  0  0  0  0  0  0  0  0  0  0
    2.5107    2.0068   -3.2847 H   0  0  0  0  0  0  0  0  0  0  0  0
    0.7072    2.2529   -1.2904 H   0  0  0  0  0  0  0  0  0  0  0  0
    0.6177    3.9074   -1.8166 H   0  0  0  0  0  0  0  0  0  0  0  0
    4.8352    3.5810   -0.0819 H   0  0  0  0  0  0  0  0  0  0  0  0
    6.1679    3.5125    1.6387 H   0  0  0  0  0  0  0  0  0  0  0  0
    5.2489    3.1821    3.7839 H   0  0  0  0  0  0  0  0  0  0  0  0
    4.5317    1.6510    3.2458 H   0  0  0  0  0  0  0  0  0  0  0  0
    3.8250    4.4077    2.0633 H   0  0  0  0  0  0  0  0  0  0  0  0
    2.9318    3.6257    3.3582 H   0  0  0  0  0  0  0  0  0  0  0  0
    1.7326    3.3503    1.3153 H   0  0  0  0  0  0  0  0  0  0  0  0
    2.2217    1.8202    1.9584 H   0  0  0  0  0  0  0  0  0  0  0  0
    3.8738    0.5109   -0.9616 H   0  0  0  0  0  0  0  0  0  0  0  0
    2.3062    0.8822   -1.4566 H   0  0  0  0  0  0  0  0  0  0  0  0
  1  2  1  0  0  0  0
  1 24  1  0  0  0  0
  1 25  1  0  0  0  0
  1 26  1  0  0  0  0
  2  3  1  0  0  0  0
  2 23  1  0  0  0  0
  2 27  1  0  0  0  0
  3  4  1  0  0  0  0
  3 28  1  0  0  0  0
  3 29  1  0  0  0  0
  4  5  1  0  0  0  0
  4 30  1  0  0  0  0
  4 31  1  0  0  0  0
  5  6  1  0  0  0  0
  5 32  1  0  0  0  0
  5 33  1  0  0  0  0
  6  7  1  0  0  0  0
  6 34  1  0  0  0  0
  6 35  1  0  0  0  0
  7  8  1  0  0  0  0
  7 36  1  0  0  0  0
  7 37  1  0  0  0  0
  8  9  1  0  0  0  0
  8 38  1  0  0  0  0
  8 39  1  0  0  0  0
  9 10  1  0  0  0  0
  9 40  1  0  0  0  0
  9 41  1  0  0  0  0
 10 11  1  0  0  0  0
 10 42  1  0  0  0  0
 10 43  1  0  0  0  0
 11 12  1  0  0  0  0
 11 44  1  0  0  0  0
 11 45  1  0  0  0  0
 12 13  1  0  0  0  0
 12 46  1  0  0  0  0
 12 47  1  0  0  0  0
 13 14  2  0  0  0  0
 13 15  1  0  0  0  0
 15 16  1  0  0  0  0
 15 22  1  0  0  0  0
 15 23  1  0  0  0  0
 16 17  1  0  0  0  0
 16 48  1  0  0  0  0
 17 18  2  0  0  0  0
 17 19  1  0  0  0  0
 19 20  1  0  0  0  0
 19 49  1  0  0  0  0
 20 21  1  0  0  0  0
 20 50  1  0  0  0  0
 20 51  1  0  0  0  0
 21 22  1  0  0  0  0
 21 52  1  0  0  0  0
 21 53  1  0  0  0  0
 22 54  1  0  0  0  0
 22 55  1  0  0  0  0
 23 56  1  0  0  0  0
 23 57  1  0  0  0  0
M  END
$$$$
