
 OpenBabel04232216563D

132132  0  0  1  0  0  0  0  0999 V2000
    1.1945   -0.1202   -0.1496 C   0  0  0  0  0  0  0  0  0  0  0  0
    2.6332   -0.0475   -0.1337 N   0  0  0  0  0  0  0  0  0  0  0  0
    3.4928   -1.1018    0.0498 C   0  0  0  0  0  0  0  0  0  0  0  0
    4.7368   -0.6773    0.4350 C   0  0  0  0  0  0  0  0  0  0  0  0
    4.6939    0.8234    0.6005 C   0  0  0  0  0  0  0  0  0  0  0  0
    3.3706    1.2239   -0.0969 C   0  0  3  0  0  0  0  0  0  0  0  0
    3.6377    1.7023   -1.5416 C   0  0  0  0  0  0  0  0  0  0  0  0
    4.5685    2.9126   -1.5714 C   0  0  0  0  0  0  0  0  0  0  0  0
    4.8329    3.3582   -2.9957 C   0  0  0  0  0  0  0  0  0  0  0  0
    5.7654    4.5583   -2.9938 C   0  0  0  0  0  0  0  0  0  0  0  0
    6.0278    5.0062   -4.4187 C   0  0  0  0  0  0  0  0  0  0  0  0
    6.9565    6.2056   -4.4230 C   0  0  0  0  0  0  0  0  0  0  0  0
    7.2169    6.6494   -5.8500 C   0  0  0  0  0  0  0  0  0  0  0  0
    8.1452    7.8487   -5.8553 C   0  0  0  0  0  0  0  0  0  0  0  0
    8.4053    8.2922   -7.2821 C   0  0  0  0  0  0  0  0  0  0  0  0
    9.3336    9.4916   -7.2872 C   0  0  0  0  0  0  0  0  0  0  0  0
    9.5937    9.9350   -8.7140 C   0  0  0  0  0  0  0  0  0  0  0  0
   10.5219   11.1343   -8.7189 C   0  0  0  0  0  0  0  0  0  0  0  0
   10.7835   11.5764  -10.1458 C   0  0  0  0  0  0  0  0  0  0  0  0
   11.7117   12.7755  -10.1505 C   0  0  0  0  0  0  0  0  0  0  0  0
   11.9728   13.2171  -11.5771 C   0  0  0  0  0  0  0  0  0  0  0  0
   12.9004   14.4154  -11.5809 C   0  0  0  0  0  0  0  0  0  0  0  0
   13.1603   14.8552  -13.0066 C   0  0  0  0  0  0  0  0  0  0  0  0
   14.0862   16.0510  -13.0058 C   0  0  0  0  0  0  0  0  0  0  0  0
   14.3429   16.4865  -14.4283 C   0  0  0  0  0  0  0  0  0  0  0  0
   15.2650   17.6762  -14.4110 C   0  0  0  0  0  0  0  0  0  0  0  0
   15.5132   18.1000  -15.8234 C   0  0  0  0  0  0  0  0  0  0  0  0
   16.4231   19.2728  -15.7914 C   0  0  0  0  0  0  0  0  0  0  0  0
   16.5742   19.5634  -17.1404 O   0  0  0  0  0  0  0  0  0  0  0  0
   17.4326   20.6684  -17.0926 O   0  0  0  0  0  0  0  0  0  0  0  0
   17.6594   21.0573  -18.4019 O   0  0  0  0  0  0  0  0  0  0  0  0
   18.5095   22.1516  -18.3508 O   0  0  0  0  0  0  0  0  0  0  0  0
   18.7247   22.5252  -19.6595 O   0  0  0  0  0  0  0  0  0  0  0  0
   19.5705   23.6144  -19.6156 O   0  0  0  0  0  0  0  0  0  0  0  0
   19.7754   23.9744  -20.9218 O   0  0  0  0  0  0  0  0  0  0  0  0
   20.6185   25.0604  -20.8793 O   0  0  0  0  0  0  0  0  0  0  0  0
   20.8184   25.4140  -22.1853 O   0  0  0  0  0  0  0  0  0  0  0  0
   21.6567   26.4933  -22.1369 O   0  0  0  0  0  0  0  0  0  0  0  0
   21.8558   26.8462  -23.4473 O   0  0  0  0  0  0  0  0  0  0  0  0
   22.6935   27.9245  -23.3981 O   0  0  0  0  0  0  0  0  0  0  0  0
   22.8950   28.2800  -24.7008 O   0  0  0  0  0  0  0  0  0  0  0  0
   23.7270   29.3505  -24.6444 O   0  0  0  0  0  0  0  0  0  0  0  0
   23.9265   29.7034  -25.9468 O   0  0  0  0  0  0  0  0  0  0  0  0
   24.7663   30.7839  -25.8889 O   0  0  0  0  0  0  0  0  0  0  0  0
   24.9603   31.1291  -27.1849 O   0  0  0  0  0  0  0  0  0  0  0  0
   25.8060   32.2175  -27.1304 O   0  0  0  0  0  0  0  0  0  0  0  0
   25.9988   32.5615  -28.4303 O   0  0  0  0  0  0  0  0  0  0  0  0
   26.8336   33.6361  -28.3791 O   0  0  0  0  0  0  0  0  0  0  0  0
   27.0234   33.9759  -29.6758 O   0  0  0  0  0  0  0  0  0  0  0  0
   27.8792   35.0785  -29.6383 O   0  0  0  0  0  0  0  0  0  0  0  0
   28.0667   35.4144  -30.9195 O   0  0  0  0  0  0  0  0  0  0  0  0
   28.9020   36.4896  -30.8683 O   0  0  0  0  0  0  0  0  0  0  0  0
   29.1090   36.8516  -32.1637 O   0  0  0  0  0  0  0  0  0  0  0  0
   29.9421   37.9229  -32.0980 O   0  0  0  0  0  0  0  0  0  0  0  0
   30.1336   38.2663  -33.4128 O   0  0  0  0  0  0  0  0  0  0  0  0
   30.9727   39.3455  -33.3500 O   0  0  0  0  0  0  0  0  0  0  0  0
   31.1698   39.6953  -34.6537 O   0  0  0  0  0  0  0  0  0  0  0  0
   32.0059   40.7709  -34.5941 O   0  0  0  0  0  0  0  0  0  0  0  0
   32.2033   41.1210  -35.8962 O   0  0  0  0  0  0  0  0  0  0  0  0
   33.0391   42.1963  -35.8368 O   0  0  0  0  0  0  0  0  0  0  0  0
   33.2369   42.5469  -37.1395 O   0  0  0  0  0  0  0  0  0  0  0  0
   34.0728   43.6222  -37.0810 O   0  0  0  0  0  0  0  0  0  0  0  0
   34.2706   43.9729  -38.3835 O   0  0  0  0  0  0  0  0  0  0  0  0
   35.1066   45.0485  -38.3251 O   0  0  0  0  0  0  0  0  0  0  0  0
   35.3050   45.4000  -39.6285 O   0  0  0  0  0  0  0  0  0  0  0  0
   36.1415   46.4762  -39.5707 O   0  0  0  0  0  0  0  0  0  0  0  0
   36.3411   46.8293  -40.8747 O   0  0  0  0  0  0  0  0  0  0  0  0
   37.1788   47.9073  -40.8187 O   0  0  0  0  0  0  0  0  0  0  0  0
   37.3801   48.2626  -42.1243 O   0  0  0  0  0  0  0  0  0  0  0  0
   38.2198   49.3434  -42.0726 O   0  0  0  0  0  0  0  0  0  0  0  0
   38.4239   49.7027  -43.3814 O   0  0  0  0  0  0  0  0  0  0  0  0
   39.2669   50.7882  -43.3347 O   0  0  0  0  0  0  0  0  0  0  0  0
   39.4768   51.1550  -44.6459 O   0  0  0  0  0  0  0  0  0  0  0  0
   40.3259   52.2493  -44.6059 O   0  0  0  0  0  0  0  0  0  0  0  0
   40.5416   52.6254  -45.9330 O   0  0  0  0  0  0  0  0  0  0  0  0
   41.4056   53.7125  -45.9223 O   0  0  0  0  0  0  0  0  0  0  0  0
   41.6338   54.0958  -47.2690 O   0  0  0  0  0  0  0  0  0  0  0  0
   42.4826   55.2330  -47.2549 O   0  0  0  0  0  0  0  0  0  0  0  0
   41.8526   56.2991  -46.5050 O   0  0  0  0  0  0  0  0  0  0  0  0
    0.8486   -1.1619   -0.0849 H   0  0  0  0  0  0  0  0  0  0  0  0
    0.7861    0.3070   -1.0686 H   0  0  0  0  0  0  0  0  0  0  0  0
    0.7569    0.4130    0.7051 H   0  0  0  0  0  0  0  0  0  0  0  0
    3.1953   -2.1138   -0.1197 H   0  0  0  0  0  0  0  0  0  0  0  0
    5.5816   -1.2906    0.5856 H   0  0  0  0  0  0  0  0  0  0  0  0
    5.5902    1.2640    0.1725 H   0  0  0  0  0  0  0  0  0  0  0  0
    4.6664    1.0785    1.6640 H   0  0  0  0  0  0  0  0  0  0  0  0
    2.8355    2.0095    0.4603 H   0  0  0  0  0  0  0  0  0  0  0  0
    2.6920    1.9540   -2.0373 H   0  0  0  0  0  0  0  0  0  0  0  0
    4.0828    0.8882   -2.1315 H   0  0  0  0  0  0  0  0  0  0  0  0
    5.5386    2.6859   -1.1198 H   0  0  0  0  0  0  0  0  0  0  0  0
    4.1333    3.7306   -0.9866 H   0  0  0  0  0  0  0  0  0  0  0  0
    3.8880    3.6154   -3.4853 H   0  0  0  0  0  0  0  0  0  0  0  0
    5.2893    2.5383   -3.5646 H   0  0  0  0  0  0  0  0  0  0  0  0
    6.7137    4.3010   -2.5041 H   0  0  0  0  0  0  0  0  0  0  0  0
    5.3182    5.3789   -2.4194 H   0  0  0  0  0  0  0  0  0  0  0  0
    5.0806    5.2655   -4.9073 H   0  0  0  0  0  0  0  0  0  0  0  0
    6.4758    4.1853   -4.9920 H   0  0  0  0  0  0  0  0  0  0  0  0
    7.9036    5.9479   -3.9331 H   0  0  0  0  0  0  0  0  0  0  0  0
    6.5082    7.0279   -3.8519 H   0  0  0  0  0  0  0  0  0  0  0  0
    6.2700    6.9075   -6.3401 H   0  0  0  0  0  0  0  0  0  0  0  0
    7.6651    5.8273   -6.4215 H   0  0  0  0  0  0  0  0  0  0  0  0
    9.0922    7.5908   -5.3654 H   0  0  0  0  0  0  0  0  0  0  0  0
    7.6970    8.6710   -5.2840 H   0  0  0  0  0  0  0  0  0  0  0  0
    7.4584    8.5503   -7.7721 H   0  0  0  0  0  0  0  0  0  0  0  0
    8.8536    7.4700   -7.8535 H   0  0  0  0  0  0  0  0  0  0  0  0
   10.2806    9.2336   -6.7972 H   0  0  0  0  0  0  0  0  0  0  0  0
    8.8854   10.3138   -6.7158 H   0  0  0  0  0  0  0  0  0  0  0  0
    8.6468   10.1931   -9.2039 H   0  0  0  0  0  0  0  0  0  0  0  0
   10.0419    9.1128   -9.2853 H   0  0  0  0  0  0  0  0  0  0  0  0
   11.4684   10.8768   -8.2278 H   0  0  0  0  0  0  0  0  0  0  0  0
   10.0731   11.9570   -8.1488 H   0  0  0  0  0  0  0  0  0  0  0  0
    9.8372   11.8341  -10.6371 H   0  0  0  0  0  0  0  0  0  0  0  0
   11.2325   10.7538  -10.7160 H   0  0  0  0  0  0  0  0  0  0  0  0
   12.6583   12.5182   -9.6596 H   0  0  0  0  0  0  0  0  0  0  0  0
   11.2630   13.5985   -9.5806 H   0  0  0  0  0  0  0  0  0  0  0  0
   11.0268   13.4753  -12.0688 H   0  0  0  0  0  0  0  0  0  0  0  0
   12.4222   12.3950  -12.1477 H   0  0  0  0  0  0  0  0  0  0  0  0
   13.8477   14.1589  -11.0906 H   0  0  0  0  0  0  0  0  0  0  0  0
   12.4524   15.2392  -11.0117 H   0  0  0  0  0  0  0  0  0  0  0  0
   12.2154   15.1151  -13.4995 H   0  0  0  0  0  0  0  0  0  0  0  0
   13.6109   14.0347  -13.5785 H   0  0  0  0  0  0  0  0  0  0  0  0
   15.0350   15.7965  -12.5175 H   0  0  0  0  0  0  0  0  0  0  0  0
   13.6395   16.8770  -12.4386 H   0  0  0  0  0  0  0  0  0  0  0  0
   13.4013   16.7513  -14.9253 H   0  0  0  0  0  0  0  0  0  0  0  0
   14.7972   15.6706  -15.0042 H   0  0  0  0  0  0  0  0  0  0  0  0
   16.2174   17.4252  -13.9281 H   0  0  0  0  0  0  0  0  0  0  0  0
   14.8204   18.5069  -13.8491 H   0  0  0  0  0  0  0  0  0  0  0  0
   14.5840   18.3718  -16.3423 H   0  0  0  0  0  0  0  0  0  0  0  0
   15.9696   17.2990  -16.4206 H   0  0  0  0  0  0  0  0  0  0  0  0
   17.4019   19.0419  -15.3525 H   0  0  0  0  0  0  0  0  0  0  0  0
   15.9871   20.1373  -15.2749 H   0  0  0  0  0  0  0  0  0  0  0  0
   42.5809   56.9082  -46.6202 H   0  0  0  0  0  0  0  0  0  0  0  0
  1  2  1  0  0  0  0
  1 80  1  0  0  0  0
  1 81  1  0  0  0  0
  1 82  1  0  0  0  0
  2  3  1  0  0  0  0
  2  6  1  0  0  0  0
  3  4  2  0  0  0  0
  3 83  1  0  0  0  0
  4  5  1  0  0  0  0
  4 84  1  0  0  0  0
  5  6  1  0  0  0  0
  5 85  1  0  0  0  0
  5 86  1  0  0  0  0
  6  7  1  0  0  0  0
  6 87  1  0  0  0  0
  7  8  1  0  0  0  0
  7 88  1  0  0  0  0
  7 89  1  0  0  0  0
  8  9  1  0  0  0  0
  8 90  1  0  0  0  0
  8 91  1  0  0  0  0
  9 10  1  0  0  0  0
  9 92  1  0  0  0  0
  9 93  1  0  0  0  0
 10 11  1  0  0  0  0
 10 94  1  0  0  0  0
 10 95  1  0  0  0  0
 11 12  1  0  0  0  0
 11 96  1  0  0  0  0
 11 97  1  0  0  0  0
 12 13  1  0  0  0  0
 12 98  1  0  0  0  0
 12 99  1  0  0  0  0
 13 14  1  0  0  0  0
 13100  1  0  0  0  0
 13101  1  0  0  0  0
 14 15  1  0  0  0  0
 14102  1  0  0  0  0
 14103  1  0  0  0  0
 15 16  1  0  0  0  0
 15104  1  0  0  0  0
 15105  1  0  0  0  0
 16 17  1  0  0  0  0
 16106  1  0  0  0  0
 16107  1  0  0  0  0
 17 18  1  0  0  0  0
 17108  1  0  0  0  0
 17109  1  0  0  0  0
 18 19  1  0  0  0  0
 18110  1  0  0  0  0
 18111  1  0  0  0  0
 19 20  1  0  0  0  0
 19112  1  0  0  0  0
 19113  1  0  0  0  0
 20 21  1  0  0  0  0
 20114  1  0  0  0  0
 20115  1  0  0  0  0
 21 22  1  0  0  0  0
 21116  1  0  0  0  0
 21117  1  0  0  0  0
 22 23  1  0  0  0  0
 22118  1  0  0  0  0
 22119  1  0  0  0  0
 23 24  1  0  0  0  0
 23120  1  0  0  0  0
 23121  1  0  0  0  0
 24 25  1  0  0  0  0
 24122  1  0  0  0  0
 24123  1  0  0  0  0
 25 26  1  0  0  0  0
 25124  1  0  0  0  0
 25125  1  0  0  0  0
 26 27  1  0  0  0  0
 26126  1  0  0  0  0
 26127  1  0  0  0  0
 27 28  1  0  0  0  0
 27128  1  0  0  0  0
 27129  1  0  0  0  0
 28 29  1  0  0  0  0
 28130  1  0  0  0  0
 28131  1  0  0  0  0
 29 30  1  0  0  0  0
 30 31  1  0  0  0  0
 31 32  1  0  0  0  0
 32 33  1  0  0  0  0
 33 34  1  0  0  0  0
 34 35  1  0  0  0  0
 35 36  1  0  0  0  0
 36 37  1  0  0  0  0
 37 38  1  0  0  0  0
 38 39  1  0  0  0  0
 39 40  1  0  0  0  0
 40 41  1  0  0  0  0
 41 42  1  0  0  0  0
 42 43  1  0  0  0  0
 43 44  1  0  0  0  0
 44 45  1  0  0  0  0
 45 46  1  0  0  0  0
 46 47  1  0  0  0  0
 47 48  1  0  0  0  0
 48 49  1  0  0  0  0
 49 50  1  0  0  0  0
 50 51  1  0  0  0  0
 51 52  1  0  0  0  0
 52 53  1  0  0  0  0
 53 54  1  0  0  0  0
 54 55  1  0  0  0  0
 55 56  1  0  0  0  0
 56 57  1  0  0  0  0
 57 58  1  0  0  0  0
 58 59  1  0  0  0  0
 59 60  1  0  0  0  0
 60 61  1  0  0  0  0
 61 62  1  0  0  0  0
 62 63  1  0  0  0  0
 63 64  1  0  0  0  0
 64 65  1  0  0  0  0
 65 66  1  0  0  0  0
 66 67  1  0  0  0  0
 67 68  1  0  0  0  0
 68 69  1  0  0  0  0
 69 70  1  0  0  0  0
 70 71  1  0  0  0  0
 71 72  1  0  0  0  0
 72 73  1  0  0  0  0
 73 74  1  0  0  0  0
 74 75  1  0  0  0  0
 75 76  1  0  0  0  0
 76 77  1  0  0  0  0
 77 78  1  0  0  0  0
 78 79  1  0  0  0  0
 79132  1  0  0  0  0
M  END
$$$$
