
 OpenBabel04232216493D

 74 75  0  0  1  0  0  0  0  0999 V2000
    0.6016   -0.1452    0.3665 C   0  0  0  0  0  0  0  0  0  0  0  0
    2.0347   -0.0842    0.9827 C   0  0  3  0  0  0  0  0  0  0  0  0
    2.9291   -0.8789   -0.0601 C   0  0  0  0  0  0  0  0  0  0  0  0
    3.7016   -2.0649    0.5311 C   0  0  0  0  0  0  0  0  0  0  0  0
    5.0469   -2.3493   -0.1608 C   0  0  0  0  0  0  0  0  0  0  0  0
    6.2312   -2.1175    0.7897 C   0  0  0  0  0  0  0  0  0  0  0  0
    7.2392   -1.0545    0.3280 C   0  0  0  0  0  0  0  0  0  0  0  0
    7.3454    0.1095    1.3313 C   0  0  0  0  0  0  0  0  0  0  0  0
    6.7638    1.4346    0.8201 C   0  0  0  0  0  0  0  0  0  0  0  0
    6.0229    2.2387    1.9328 C   0  0  0  0  0  0  0  0  0  0  0  0
    4.5927    2.6914    1.5686 C   0  0  0  0  0  0  0  0  0  0  0  0
    3.2393    2.2892    2.3214 C   0  0  3  0  0  0  0  0  0  0  0  0
    2.7895    2.4233    4.0977 C   0  0  0  0  0  0  0  0  0  0  0  0
    2.1262    1.5616    4.6387 O   0  0  0  0  0  0  0  0  0  0  0  0
    3.2343    3.7480    5.0376 C   0  0  0  0  0  0  0  0  0  0  0  0
    4.3351    4.1479    4.4015 C   0  0  0  0  0  0  0  0  0  0  0  0
    5.5617    3.6065    4.9153 C   0  0  0  0  0  0  0  0  0  0  0  0
    6.6175    4.4142    4.9343 C   0  0  0  0  0  0  0  0  0  0  0  0
    7.1833    4.6251    6.3016 C   0  0  0  0  0  0  0  0  0  0  0  0
    6.5419    5.9377    6.7015 C   0  0  0  0  0  0  0  0  0  0  0  0
    6.7132    6.1938    8.1603 C   0  0  0  0  0  0  0  0  0  0  0  0
    6.3434    7.6442    8.4000 C   0  0  0  0  0  0  0  0  0  0  0  0
    5.6911    7.7374    9.7462 C   0  0  0  0  0  0  0  0  0  0  0  0
    4.1599    7.5012    9.6092 C   0  0  0  0  0  0  0  0  0  0  0  0
    3.5342    6.0640    9.1373 C   0  0  0  0  0  0  0  0  0  0  0  0
    3.0478    5.6241    7.5599 C   0  0  0  0  0  0  0  0  0  0  0  0
    3.2120    4.0397    6.7639 C   0  0  0  0  0  0  0  0  0  0  0  0
    2.3703    1.4456    1.1627 C   0  0  0  0  0  0  0  0  0  0  0  0
    0.1787   -1.1520    0.4480 H   0  0  0  0  0  0  0  0  0  0  0  0
    0.6149    0.1179   -0.7027 H   0  0  0  0  0  0  0  0  0  0  0  0
   -0.0876    0.5465    0.8565 H   0  0  0  0  0  0  0  0  0  0  0  0
    2.0120   -0.5855    1.9535 H   0  0  0  0  0  0  0  0  0  0  0  0
    3.5956   -0.2071   -0.6113 H   0  0  0  0  0  0  0  0  0  0  0  0
    2.2918   -1.3316   -0.8416 H   0  0  0  0  0  0  0  0  0  0  0  0
    3.0768   -2.9672    0.4290 H   0  0  0  0  0  0  0  0  0  0  0  0
    3.8294   -1.9195    1.6083 H   0  0  0  0  0  0  0  0  0  0  0  0
    5.1545   -1.8002   -1.1023 H   0  0  0  0  0  0  0  0  0  0  0  0
    5.0652   -3.4126   -0.4438 H   0  0  0  0  0  0  0  0  0  0  0  0
    6.7698   -3.0684    0.8945 H   0  0  0  0  0  0  0  0  0  0  0  0
    5.8719   -1.8921    1.7984 H   0  0  0  0  0  0  0  0  0  0  0  0
    7.0448   -0.7059   -0.6919 H   0  0  0  0  0  0  0  0  0  0  0  0
    8.2231   -1.5437    0.2866 H   0  0  0  0  0  0  0  0  0  0  0  0
    8.4085    0.2670    1.5559 H   0  0  0  0  0  0  0  0  0  0  0  0
    6.8826   -0.1621    2.2835 H   0  0  0  0  0  0  0  0  0  0  0  0
    6.1384    1.2792   -0.0648 H   0  0  0  0  0  0  0  0  0  0  0  0
    7.6178    2.0350    0.4642 H   0  0  0  0  0  0  0  0  0  0  0  0
    6.6113    3.1670    2.0266 H   0  0  0  0  0  0  0  0  0  0  0  0
    6.0697    1.7489    2.9030 H   0  0  0  0  0  0  0  0  0  0  0  0
    4.4987    2.4668    0.5008 H   0  0  0  0  0  0  0  0  0  0  0  0
    4.6153    3.7879    1.5073 H   0  0  0  0  0  0  0  0  0  0  0  0
    2.6724    3.2449    2.1287 H   0  0  0  0  0  0  0  0  0  0  0  0
    4.3541    4.2671    3.3367 H   0  0  0  0  0  0  0  0  0  0  0  0
    5.4832    2.7820    5.6432 H   0  0  0  0  0  0  0  0  0  0  0  0
    6.6487    5.2678    4.2635 H   0  0  0  0  0  0  0  0  0  0  0  0
    8.2665    4.6963    6.2824 H   0  0  0  0  0  0  0  0  0  0  0  0
    6.8922    3.8365    7.0010 H   0  0  0  0  0  0  0  0  0  0  0  0
    5.4520    5.9447    6.4915 H   0  0  0  0  0  0  0  0  0  0  0  0
    6.9503    6.7605    6.1028 H   0  0  0  0  0  0  0  0  0  0  0  0
    7.7381    6.0054    8.4916 H   0  0  0  0  0  0  0  0  0  0  0  0
    6.0756    5.5041    8.7234 H   0  0  0  0  0  0  0  0  0  0  0  0
    5.6414    8.0276    7.6448 H   0  0  0  0  0  0  0  0  0  0  0  0
    7.2418    8.2593    8.3148 H   0  0  0  0  0  0  0  0  0  0  0  0
    5.8983    8.7447   10.1465 H   0  0  0  0  0  0  0  0  0  0  0  0
    6.1548    7.0480   10.4709 H   0  0  0  0  0  0  0  0  0  0  0  0
    3.8096    7.6942   10.6388 H   0  0  0  0  0  0  0  0  0  0  0  0
    3.7405    8.3245    9.0184 H   0  0  0  0  0  0  0  0  0  0  0  0
    4.0578    5.2593    9.6584 H   0  0  0  0  0  0  0  0  0  0  0  0
    2.5652    6.1469    9.6638 H   0  0  0  0  0  0  0  0  0  0  0  0
    3.3402    6.4209    6.8764 H   0  0  0  0  0  0  0  0  0  0  0  0
    1.9504    5.6917    7.6616 H   0  0  0  0  0  0  0  0  0  0  0  0
    2.4319    3.3967    7.1998 H   0  0  0  0  0  0  0  0  0  0  0  0
    4.1718    3.6712    7.1648 H   0  0  0  0  0  0  0  0  0  0  0  0
    2.8577    1.6751    0.1971 H   0  0  0  0  0  0  0  0  0  0  0  0
    1.4383    2.0033    1.0580 H   0  0  0  0  0  0  0  0  0  0  0  0
  1  2  1  0  0  0  0
  1 29  1  0  0  0  0
  1 30  1  0  0  0  0
  1 31  1  0  0  0  0
  2  3  1  0  0  0  0
  2 28  1  0  0  0  0
  2 32  1  0  0  0  0
  3  4  1  0  0  0  0
  3 33  1  0  0  0  0
  3 34  1  0  0  0  0
  4  5  1  0  0  0  0
  4 35  1  0  0  0  0
  4 36  1  0  0  0  0
  5  6  1  0  0  0  0
  5 37  1  0  0  0  0
  5 38  1  0  0  0  0
  6  7  1  0  0  0  0
  6 39  1  0  0  0  0
  6 40  1  0  0  0  0
  7  8  1  0  0  0  0
  7 41  1  0  0  0  0
  7 42  1  0  0  0  0
  8  9  1  0  0  0  0
  8 43  1  0  0  0  0
  8 44  1  0  0  0  0
  9 10  1  0  0  0  0
  9 45  1  0  0  0  0
  9 46  1  0  0  0  0
 10 11  1  0  0  0  0
 10 47  1  0  0  0  0
 10 48  1  0  0  0  0
 11 12  1  0  0  0  0
 11 49  1  0  0  0  0
 11 50  1  0  0  0  0
 12 13  1  0  0  0  0
 12 28  1  0  0  0  0
 12 51  1  0  0  0  0
 13 14  2  0  0  0  0
 13 15  1  0  0  0  0
 15 16  2  3  0  0  0
 15 27  1  0  0  0  0
 16 17  1  0  0  0  0
 16 52  1  0  0  0  0
 17 18  2  3  0  0  0
 17 53  1  0  0  0  0
 18 19  1  0  0  0  0
 18 54  1  0  0  0  0
 19 20  1  0  0  0  0
 19 55  1  0  0  0  0
 19 56  1  0  0  0  0
 20 21  1  0  0  0  0
 20 57  1  0  0  0  0
 20 58  1  0  0  0  0
 21 22  1  0  0  0  0
 21 59  1  0  0  0  0
 21 60  1  0  0  0  0
 22 23  1  0  0  0  0
 22 61  1  0  0  0  0
 22 62  1  0  0  0  0
 23 24  1  0  0  0  0
 23 63  1  0  0  0  0
 23 64  1  0  0  0  0
 24 25  1  0  0  0  0
 24 65  1  0  0  0  0
 24 66  1  0  0  0  0
 25 26  1  0  0  0  0
 25 67  1  0  0  0  0
 25 68  1  0  0  0  0
 26 27  1  0  0  0  0
 26 69  1  0  0  0  0
 26 70  1  0  0  0  0
 27 71  1  0  0  0  0
 27 72  1  0  0  0  0
 28 73  1  0  0  0  0
 28 74  1  0  0  0  0
M  END
$$$$
