
 OpenBabel04232217023D

 92 91  0  0  0  0  0  0  0  0999 V2000
   12.2998  -15.1699    5.0537 O   0  0  0  0  0  0  0  0  0  0  0  0
   11.6463  -13.8403    5.7826 S   0  0  0  0  0  0  0  0  0  0  0  0
   12.1854  -12.5455    4.5968 C   0  0  0  0  0  0  0  0  0  0  0  0
   11.6743  -11.1720    5.0640 C   0  0  0  0  0  0  0  0  0  0  0  0
   12.0628  -10.0614    4.1660 N   0  0  0  0  0  0  0  0  0  0  0  0
   11.5073  -10.2715    2.8452 N   0  0  0  0  0  0  0  0  0  0  0  0
   11.8679   -9.2339    1.9264 N   0  0  0  0  0  0  0  0  0  0  0  0
   11.3237   -9.4816    0.6307 N   0  0  0  0  0  0  0  0  0  0  0  0
   11.6588   -8.4401   -0.2990 N   0  0  0  0  0  0  0  0  0  0  0  0
   11.0335   -8.8161   -1.7976 S   0  0  0  0  0  0  0  0  0  0  0  0
   11.6690   -7.2403   -2.9651 S   0  0  0  0  0  0  0  0  0  0  0  0
   13.7376   -7.2515   -3.0009 S   0  0  0  0  0  0  0  0  0  0  0  0
   14.4206   -9.0306   -3.8250 S   0  0  0  0  0  0  0  0  0  0  0  0
   16.5246   -9.0062   -3.7899 S   0  0  0  0  0  0  0  0  0  0  0  0
   17.2253  -10.8342   -4.5729 S   0  0  0  0  0  0  0  0  0  0  0  0
   19.3359  -10.8200   -4.5674 S   0  0  0  0  0  0  0  0  0  0  0  0
   20.0286  -12.6534   -5.3523 S   0  0  0  0  0  0  0  0  0  0  0  0
   22.1389  -12.6426   -5.3476 S   0  0  0  0  0  0  0  0  0  0  0  0
   22.8300  -14.4755   -6.1324 S   0  0  0  0  0  0  0  0  0  0  0  0
   24.9398  -14.4637   -6.1274 S   0  0  0  0  0  0  0  0  0  0  0  0
   25.6307  -16.2961   -6.9119 S   0  0  0  0  0  0  0  0  0  0  0  0
   27.7402  -16.2840   -6.9067 S   0  0  0  0  0  0  0  0  0  0  0  0
   28.4309  -18.1163   -7.6913 S   0  0  0  0  0  0  0  0  0  0  0  0
   30.5403  -18.1041   -7.6861 S   0  0  0  0  0  0  0  0  0  0  0  0
   31.2309  -19.9364   -8.4706 S   0  0  0  0  0  0  0  0  0  0  0  0
   33.3403  -19.9242   -8.4654 S   0  0  0  0  0  0  0  0  0  0  0  0
   34.0309  -21.7565   -9.2499 S   0  0  0  0  0  0  0  0  0  0  0  0
   36.1403  -21.7443   -9.2447 S   0  0  0  0  0  0  0  0  0  0  0  0
   36.8309  -23.5766  -10.0292 S   0  0  0  0  0  0  0  0  0  0  0  0
   38.9402  -23.5644  -10.0240 S   0  0  0  0  0  0  0  0  0  0  0  0
   39.6309  -25.3966  -10.8085 S   0  0  0  0  0  0  0  0  0  0  0  0
   41.7402  -25.3845  -10.8033 S   0  0  0  0  0  0  0  0  0  0  0  0
   42.4309  -27.2167  -11.5878 S   0  0  0  0  0  0  0  0  0  0  0  0
   44.5402  -27.2045  -11.5826 S   0  0  0  0  0  0  0  0  0  0  0  0
   45.2309  -29.0368  -12.3671 S   0  0  0  0  0  0  0  0  0  0  0  0
   47.3402  -29.0246  -12.3619 S   0  0  0  0  0  0  0  0  0  0  0  0
   48.0308  -30.8569  -13.1464 S   0  0  0  0  0  0  0  0  0  0  0  0
   50.1402  -30.8447  -13.1412 S   0  0  0  0  0  0  0  0  0  0  0  0
   50.8308  -32.6770  -13.9257 S   0  0  0  0  0  0  0  0  0  0  0  0
   52.9402  -32.6648  -13.9205 S   0  0  0  0  0  0  0  0  0  0  0  0
   53.6308  -34.4970  -14.7050 S   0  0  0  0  0  0  0  0  0  0  0  0
   55.7402  -34.4849  -14.6998 S   0  0  0  0  0  0  0  0  0  0  0  0
   56.4308  -36.3171  -15.4843 S   0  0  0  0  0  0  0  0  0  0  0  0
   58.5402  -36.3049  -15.4791 S   0  0  0  0  0  0  0  0  0  0  0  0
   59.2308  -38.1372  -16.2636 S   0  0  0  0  0  0  0  0  0  0  0  0
   61.3402  -38.1250  -16.2584 S   0  0  0  0  0  0  0  0  0  0  0  0
   62.0308  -39.9573  -17.0429 S   0  0  0  0  0  0  0  0  0  0  0  0
   64.1402  -39.9451  -17.0377 S   0  0  0  0  0  0  0  0  0  0  0  0
   64.8308  -41.7774  -17.8222 S   0  0  0  0  0  0  0  0  0  0  0  0
   66.9402  -41.7652  -17.8170 S   0  0  0  0  0  0  0  0  0  0  0  0
   67.6308  -43.5975  -18.6015 S   0  0  0  0  0  0  0  0  0  0  0  0
   69.7402  -43.5853  -18.5963 S   0  0  0  0  0  0  0  0  0  0  0  0
   70.4308  -45.4175  -19.3808 S   0  0  0  0  0  0  0  0  0  0  0  0
   72.5402  -45.4054  -19.3756 S   0  0  0  0  0  0  0  0  0  0  0  0
   73.2308  -47.2376  -20.1601 S   0  0  0  0  0  0  0  0  0  0  0  0
   75.3402  -47.2254  -20.1549 S   0  0  0  0  0  0  0  0  0  0  0  0
   76.0308  -49.0577  -20.9394 S   0  0  0  0  0  0  0  0  0  0  0  0
   78.1401  -49.0455  -20.9342 S   0  0  0  0  0  0  0  0  0  0  0  0
   78.8308  -50.8778  -21.7187 S   0  0  0  0  0  0  0  0  0  0  0  0
   80.9401  -50.8656  -21.7135 S   0  0  0  0  0  0  0  0  0  0  0  0
   81.6308  -52.6979  -22.4980 S   0  0  0  0  0  0  0  0  0  0  0  0
   83.7401  -52.6857  -22.4928 S   0  0  0  0  0  0  0  0  0  0  0  0
   84.4307  -54.5179  -23.2773 S   0  0  0  0  0  0  0  0  0  0  0  0
   86.5401  -54.5058  -23.2721 S   0  0  0  0  0  0  0  0  0  0  0  0
   87.2307  -56.3380  -24.0566 S   0  0  0  0  0  0  0  0  0  0  0  0
   89.3401  -56.3258  -24.0514 S   0  0  0  0  0  0  0  0  0  0  0  0
   90.0307  -58.1581  -24.8359 S   0  0  0  0  0  0  0  0  0  0  0  0
   92.1401  -58.1459  -24.8307 S   0  0  0  0  0  0  0  0  0  0  0  0
   92.8307  -59.9781  -25.6152 S   0  0  0  0  0  0  0  0  0  0  0  0
   94.9399  -59.9659  -25.6100 S   0  0  0  0  0  0  0  0  0  0  0  0
   95.6303  -61.7980  -26.3944 S   0  0  0  0  0  0  0  0  0  0  0  0
   97.7391  -61.7855  -26.3891 S   0  0  0  0  0  0  0  0  0  0  0  0
   98.4286  -63.6171  -27.1733 S   0  0  0  0  0  0  0  0  0  0  0  0
  100.5357  -63.6034  -27.1674 S   0  0  0  0  0  0  0  0  0  0  0  0
  101.2224  -65.4330  -27.9507 S   0  0  0  0  0  0  0  0  0  0  0  0
  103.3244  -65.4143  -27.9431 S   0  0  0  0  0  0  0  0  0  0  0  0
  104.0024  -67.2387  -28.7240 S   0  0  0  0  0  0  0  0  0  0  0  0
  106.0897  -67.2148  -28.6914 S   0  0  0  0  0  0  0  0  0  0  0  0
  106.7551  -69.0001  -29.5199 S   0  0  0  0  0  0  0  0  0  0  0  0
  108.8278  -68.9745  -29.4576 S   0  0  0  0  0  0  0  0  0  0  0  0
  109.4157  -67.4353  -30.6868 S   0  0  0  0  0  0  0  0  0  0  0  0
   12.1273  -16.0023    5.6273 H   0  0  0  0  0  0  0  0  0  0  0  0
   11.7833  -12.7758    3.6070 H   0  0  0  0  0  0  0  0  0  0  0  0
   13.2780  -12.5345    4.5290 H   0  0  0  0  0  0  0  0  0  0  0  0
   12.0814  -10.9465    6.0510 H   0  0  0  0  0  0  0  0  0  0  0  0
   10.5797  -11.1860    5.1805 H   0  0  0  0  0  0  0  0  0  0  0  0
   13.0862  -10.0592    4.1129 H   0  0  0  0  0  0  0  0  0  0  0  0
   10.4844  -10.3181    2.8996 H   0  0  0  0  0  0  0  0  0  0  0  0
   12.8855   -9.2079    1.8186 H   0  0  0  0  0  0  0  0  0  0  0  0
   10.3067   -9.5327    0.7150 H   0  0  0  0  0  0  0  0  0  0  0  0
   12.6828   -8.4048   -0.3779 H   0  0  0  0  0  0  0  0  0  0  0  0
  110.7567  -67.5037  -30.5918 H   0  0  0  0  0  0  0  0  0  0  0  0
  1  2  1  0  0  0  0
  1 82  1  0  0  0  0
  2  3  1  0  0  0  0
  3  4  1  0  0  0  0
  3 83  1  0  0  0  0
  3 84  1  0  0  0  0
  4  5  1  0  0  0  0
  4 85  1  0  0  0  0
  4 86  1  0  0  0  0
  5  6  1  0  0  0  0
  5 87  1  0  0  0  0
  6  7  1  0  0  0  0
  6 88  1  0  0  0  0
  7  8  1  0  0  0  0
  7 89  1  0  0  0  0
  8  9  1  0  0  0  0
  8 90  1  0  0  0  0
  9 10  1  0  0  0  0
  9 91  1  0  0  0  0
 10 11  1  0  0  0  0
 11 12  1  0  0  0  0
 12 13  1  0  0  0  0
 13 14  1  0  0  0  0
 14 15  1  0  0  0  0
 15 16  1  0  0  0  0
 16 17  1  0  0  0  0
 17 18  1  0  0  0  0
 18 19  1  0  0  0  0
 19 20  1  0  0  0  0
 20 21  1  0  0  0  0
 21 22  1  0  0  0  0
 22 23  1  0  0  0  0
 23 24  1  0  0  0  0
 24 25  1  0  0  0  0
 25 26  1  0  0  0  0
 26 27  1  0  0  0  0
 27 28  1  0  0  0  0
 28 29  1  0  0  0  0
 29 30  1  0  0  0  0
 30 31  1  0  0  0  0
 31 32  1  0  0  0  0
 32 33  1  0  0  0  0
 33 34  1  0  0  0  0
 34 35  1  0  0  0  0
 35 36  1  0  0  0  0
 36 37  1  0  0  0  0
 37 38  1  0  0  0  0
 38 39  1  0  0  0  0
 39 40  1  0  0  0  0
 40 41  1  0  0  0  0
 41 42  1  0  0  0  0
 42 43  1  0  0  0  0
 43 44  1  0  0  0  0
 44 45  1  0  0  0  0
 45 46  1  0  0  0  0
 46 47  1  0  0  0  0
 47 48  1  0  0  0  0
 48 49  1  0  0  0  0
 49 50  1  0  0  0  0
 50 51  1  0  0  0  0
 51 52  1  0  0  0  0
 52 53  1  0  0  0  0
 53 54  1  0  0  0  0
 54 55  1  0  0  0  0
 55 56  1  0  0  0  0
 56 57  1  0  0  0  0
 57 58  1  0  0  0  0
 58 59  1  0  0  0  0
 59 60  1  0  0  0  0
 60 61  1  0  0  0  0
 61 62  1  0  0  0  0
 62 63  1  0  0  0  0
 63 64  1  0  0  0  0
 64 65  1  0  0  0  0
 65 66  1  0  0  0  0
 66 67  1  0  0  0  0
 67 68  1  0  0  0  0
 68 69  1  0  0  0  0
 69 70  1  0  0  0  0
 70 71  1  0  0  0  0
 71 72  1  0  0  0  0
 72 73  1  0  0  0  0
 73 74  1  0  0  0  0
 74 75  1  0  0  0  0
 75 76  1  0  0  0  0
 76 77  1  0  0  0  0
 77 78  1  0  0  0  0
 78 79  1  0  0  0  0
 79 80  1  0  0  0  0
 80 81  1  0  0  0  0
 81 92  1  0  0  0  0
M  END
$$$$
