
 OpenBabel04232216493D

 67 68  0  0  1  0  0  0  0  0999 V2000
    1.1406    0.5959   -0.7581 C   0  0  0  0  0  0  0  0  0  0  0  0
   -0.0037    1.7364   -1.0899 C   0  0  0  0  0  0  0  0  0  0  0  0
   -1.1747    1.0390   -1.3128 C   0  0  0  0  0  0  0  0  0  0  0  0
   -2.2286    1.9102   -1.5492 C   0  0  0  0  0  0  0  0  0  0  0  0
   -2.2021    3.5913   -1.7129 C   0  0  0  0  0  0  0  0  0  0  0  0
   -1.0620    4.6411   -1.6323 C   0  0  0  0  0  0  0  0  0  0  0  0
   -1.0253    6.6106   -2.1148 C   0  0  0  0  0  0  0  0  0  0  0  0
   -1.3821    8.6227   -1.6475 C   0  0  3  0  0  0  0  0  0  0  0  0
   -2.0366    7.7119   -0.4605 C   0  0  0  0  0  0  0  0  0  0  0  0
   -0.8310    7.1578    0.3566 C   0  0  0  0  0  0  0  0  0  0  0  0
   -0.9458    8.1246    1.4662 C   0  0  0  0  0  0  0  0  0  0  0  0
    0.2228    9.0264    1.3496 C   0  0  0  0  0  0  0  0  0  0  0  0
   -0.4379   10.2657    1.5712 N   0  0  0  0  0  0  0  0  0  0  0  0
    0.4421   11.2861    1.1540 C   0  0  0  0  0  0  0  0  0  0  0  0
   -0.5105   12.3666    1.1074 C   0  0  0  0  0  0  0  0  0  0  0  0
    0.0380   13.5490    1.0626 C   0  0  0  0  0  0  0  0  0  0  0  0
   -0.8220   14.5923    1.3834 C   0  0  0  0  0  0  0  0  0  0  0  0
   -0.1942   15.7109    1.6407 C   0  0  0  0  0  0  0  0  0  0  0  0
   -0.8922   16.8194    1.9038 N   0  0  0  0  0  0  0  0  0  0  0  0
   -0.2110   18.0277    1.6263 C   0  0  0  0  0  0  0  0  0  0  0  0
   -1.2253   18.8365    0.8780 C   0  0  0  0  0  0  0  0  0  0  0  0
   -0.7006   18.4184   -0.6070 C   0  0  0  0  0  0  0  0  0  0  0  0
   -1.1425   16.8219   -1.2822 C   0  0  0  0  0  0  0  0  0  0  0  0
   -0.6952   14.8593   -1.4791 C   0  0  0  0  0  0  0  0  0  0  0  0
   -1.3403   12.8599   -1.5757 C   0  0  0  0  0  0  0  0  0  0  0  0
   -1.0497   10.7431   -1.7348 C   0  0  0  0  0  0  0  0  0  0  0  0
    0.0431    3.4715   -1.2223 C   0  0  0  0  0  0  0  0  0  0  0  0
    0.7726   -0.4663   -0.9249 H   0  0  0  0  0  0  0  0  0  0  0  0
    1.4509    0.5133    0.2950 H   0  0  0  0  0  0  0  0  0  0  0  0
    1.9948    0.6025   -1.4434 H   0  0  0  0  0  0  0  0  0  0  0  0
   -1.2595   -0.0813   -1.2656 H   0  0  0  0  0  0  0  0  0  0  0  0
   -3.1742    1.3252   -1.6396 H   0  0  0  0  0  0  0  0  0  0  0  0
   -3.2665    3.8285   -1.8099 H   0  0  0  0  0  0  0  0  0  0  0  0
   -1.8654    6.4880   -2.8102 H   0  0  0  0  0  0  0  0  0  0  0  0
   -0.0775    6.6140   -2.6477 H   0  0  0  0  0  0  0  0  0  0  0  0
   -0.2539    8.6546   -1.5925 H   0  0  0  0  0  0  0  0  0  0  0  0
   -2.8951    7.8991    0.2049 H   0  0  0  0  0  0  0  0  0  0  0  0
   -2.6282    6.9149   -0.9589 H   0  0  0  0  0  0  0  0  0  0  0  0
    0.1296    7.2457   -0.1986 H   0  0  0  0  0  0  0  0  0  0  0  0
   -0.7702    6.1358    0.7446 H   0  0  0  0  0  0  0  0  0  0  0  0
   -1.1672    7.6764    2.4240 H   0  0  0  0  0  0  0  0  0  0  0  0
   -1.8615    8.7266    1.3300 H   0  0  0  0  0  0  0  0  0  0  0  0
    0.6773    9.0509    0.3463 H   0  0  0  0  0  0  0  0  0  0  0  0
    0.9862    8.7757    2.0750 H   0  0  0  0  0  0  0  0  0  0  0  0
   -1.2587   10.3278    0.9535 H   0  0  0  0  0  0  0  0  0  0  0  0
    0.9160   11.1437    0.1796 H   0  0  0  0  0  0  0  0  0  0  0  0
    1.2088   11.4298    1.9138 H   0  0  0  0  0  0  0  0  0  0  0  0
   -1.5912   12.2577    1.2310 H   0  0  0  0  0  0  0  0  0  0  0  0
    1.1002   13.6732    0.8784 H   0  0  0  0  0  0  0  0  0  0  0  0
   -1.9015   14.4921    1.4327 H   0  0  0  0  0  0  0  0  0  0  0  0
    0.8861   15.7997    1.5052 H   0  0  0  0  0  0  0  0  0  0  0  0
   -1.7842   16.7399    1.4027 H   0  0  0  0  0  0  0  0  0  0  0  0
    0.6520   17.7942    0.9747 H   0  0  0  0  0  0  0  0  0  0  0  0
    0.2624   18.4732    2.4989 H   0  0  0  0  0  0  0  0  0  0  0  0
   -1.2564   19.8336    1.3651 H   0  0  0  0  0  0  0  0  0  0  0  0
   -2.2751   18.5127    0.8839 H   0  0  0  0  0  0  0  0  0  0  0  0
   -1.0693   19.4350   -1.1620 H   0  0  0  0  0  0  0  0  0  0  0  0
    0.3825   18.9498   -0.4698 H   0  0  0  0  0  0  0  0  0  0  0  0
   -2.2247   16.9424   -1.1659 H   0  0  0  0  0  0  0  0  0  0  0  0
   -0.8948   17.2175   -2.2902 H   0  0  0  0  0  0  0  0  0  0  0  0
   -0.4755   15.0350   -2.5411 H   0  0  0  0  0  0  0  0  0  0  0  0
    0.2585   14.9112   -0.9864 H   0  0  0  0  0  0  0  0  0  0  0  0
   -1.6110   13.0340   -2.6307 H   0  0  0  0  0  0  0  0  0  0  0  0
   -2.2443   12.9841   -0.9729 H   0  0  0  0  0  0  0  0  0  0  0  0
    0.0426   10.7515   -1.5704 H   0  0  0  0  0  0  0  0  0  0  0  0
   -1.2143   10.8078   -2.8132 H   0  0  0  0  0  0  0  0  0  0  0  0
    0.9979    3.7741   -0.7743 H   0  0  0  0  0  0  0  0  0  0  0  0
  1  2  1  0  0  0  0
  1 28  1  0  0  0  0
  1 29  1  0  0  0  0
  1 30  1  0  0  0  0
  2  3  1  0  0  0  0
  2 27  2  0  0  0  0
  3  4  2  0  0  0  0
  3 31  1  0  0  0  0
  4  5  1  0  0  0  0
  4 32  1  0  0  0  0
  5  6  2  0  0  0  0
  5 33  1  0  0  0  0
  6  7  1  0  0  0  0
  6 27  1  0  0  0  0
  7  8  1  0  0  0  0
  7 34  1  0  0  0  0
  7 35  1  0  0  0  0
  8  9  1  0  0  0  0
  8 26  1  0  0  0  0
  8 36  1  0  0  0  0
  9 10  1  0  0  0  0
  9 37  1  0  0  0  0
  9 38  1  0  0  0  0
 10 11  1  0  0  0  0
 10 39  1  0  0  0  0
 10 40  1  0  0  0  0
 11 12  1  0  0  0  0
 11 41  1  0  0  0  0
 11 42  1  0  0  0  0
 12 13  1  0  0  0  0
 12 43  1  0  0  0  0
 12 44  1  0  0  0  0
 13 14  1  0  0  0  0
 13 45  1  0  0  0  0
 14 15  1  0  0  0  0
 14 46  1  0  0  0  0
 14 47  1  0  0  0  0
 15 16  2  3  0  0  0
 15 48  1  0  0  0  0
 16 17  1  0  0  0  0
 16 49  1  0  0  0  0
 17 18  2  3  0  0  0
 17 50  1  0  0  0  0
 18 19  1  0  0  0  0
 18 51  1  0  0  0  0
 19 20  1  0  0  0  0
 19 52  1  0  0  0  0
 20 21  1  0  0  0  0
 20 53  1  0  0  0  0
 20 54  1  0  0  0  0
 21 22  1  0  0  0  0
 21 55  1  0  0  0  0
 21 56  1  0  0  0  0
 22 23  1  0  0  0  0
 22 57  1  0  0  0  0
 22 58  1  0  0  0  0
 23 24  1  0  0  0  0
 23 59  1  0  0  0  0
 23 60  1  0  0  0  0
 24 25  1  0  0  0  0
 24 61  1  0  0  0  0
 24 62  1  0  0  0  0
 25 26  1  0  0  0  0
 25 63  1  0  0  0  0
 25 64  1  0  0  0  0
 26 65  1  0  0  0  0
 26 66  1  0  0  0  0
 27 67  1  0  0  0  0
M  END
$$$$
