
 OpenBabel04232216533D

227226  0  0  0  0  0  0  0  0999 V2000
    3.4934    2.2067   -4.7253 C   0  0  0  0  0  0  0  0  0  0  0  0
    4.9992    2.3689   -4.8495 C   0  0  0  0  0  0  0  0  0  0  0  0
    5.4862    1.8471   -6.1983 C   0  0  0  0  0  0  0  0  0  0  0  0
    6.9968    1.9999   -6.3332 C   0  0  0  0  0  0  0  0  0  0  0  0
    7.4999    1.4786   -7.6895 C   0  0  0  0  0  0  0  0  0  0  0  0
    9.0114    1.6430   -7.8133 C   0  0  0  0  0  0  0  0  0  0  0  0
    9.7520    0.9441   -6.7993 O   0  0  0  0  0  0  0  0  0  0  0  0
   11.4036    1.1589   -6.9923 S   0  0  0  0  0  0  0  0  0  0  0  0
   12.1360   -0.0012   -5.4696 S   0  0  0  0  0  0  0  0  0  0  0  0
   11.4659   -1.9126   -5.8403 S   0  0  0  0  0  0  0  0  0  0  0  0
   12.1625   -2.3731   -7.4597 C   0  0  0  0  0  0  0  0  0  0  0  0
   13.5857   -2.3595   -7.4445 O   0  0  0  0  0  0  0  0  0  0  0  0
   14.0110   -2.7549   -8.7787 O   0  0  0  0  0  0  0  0  0  0  0  0
   15.4320   -2.7396   -8.7444 C   0  0  0  0  0  0  0  0  0  0  0  0
   15.9537   -3.1456  -10.1103 C   0  0  0  0  0  0  0  0  0  0  0  0
   17.3769   -3.1418  -10.1237 O   0  0  0  0  0  0  0  0  0  0  0  0
   17.8704   -3.5260  -11.4045 C   0  0  0  0  0  0  0  0  0  0  0  0
   19.3857   -3.5143  -11.3798 C   0  0  0  0  0  0  0  0  0  0  0  0
   19.8690   -3.8951  -12.6630 O   0  0  0  0  0  0  0  0  0  0  0  0
   21.2876   -3.8938  -12.6771 C   0  0  0  0  0  0  0  0  0  0  0  0
   21.7625   -4.3007  -14.0534 C   0  0  0  0  0  0  0  0  0  0  0  0
   23.1906   -4.2961  -14.0648 O   0  0  0  0  0  0  0  0  0  0  0  0
   23.6656   -4.6779  -15.3499 C   0  0  0  0  0  0  0  0  0  0  0  0
   25.1870   -4.6656  -15.3301 C   0  0  0  0  0  0  0  0  0  0  0  0
   25.7037   -5.0731  -16.7020 C   0  0  0  0  0  0  0  0  0  0  0  0
   27.2213   -5.0689  -16.7160 C   0  0  0  0  0  0  0  0  0  0  0  0
   27.7298   -5.4758  -18.0859 C   0  0  0  0  0  0  0  0  0  0  0  0
   29.2455   -5.4708  -18.0975 C   0  0  0  0  0  0  0  0  0  0  0  0
   29.7574   -5.8774  -19.4663 C   0  0  0  0  0  0  0  0  0  0  0  0
   31.2743   -5.8710  -19.4730 C   0  0  0  0  0  0  0  0  0  0  0  0
   31.7847   -6.2777  -20.8424 C   0  0  0  0  0  0  0  0  0  0  0  0
   33.3013   -6.2715  -20.8497 C   0  0  0  0  0  0  0  0  0  0  0  0
   33.8118   -6.6780  -22.2184 C   0  0  0  0  0  0  0  0  0  0  0  0
   35.3278   -6.6738  -22.2254 C   0  0  0  0  0  0  0  0  0  0  0  0
   35.8387   -7.0803  -23.5936 C   0  0  0  0  0  0  0  0  0  0  0  0
   37.3546   -7.0780  -23.6003 C   0  0  0  0  0  0  0  0  0  0  0  0
   37.8653   -7.4825  -24.9690 C   0  0  0  0  0  0  0  0  0  0  0  0
   39.3812   -7.4822  -24.9753 C   0  0  0  0  0  0  0  0  0  0  0  0
   39.8920   -7.8848  -26.3444 C   0  0  0  0  0  0  0  0  0  0  0  0
   41.4078   -7.8864  -26.3502 C   0  0  0  0  0  0  0  0  0  0  0  0
   41.9187   -8.2909  -27.7188 C   0  0  0  0  0  0  0  0  0  0  0  0
   43.4345   -8.2926  -27.7245 C   0  0  0  0  0  0  0  0  0  0  0  0
   43.9454   -8.6971  -29.0931 C   0  0  0  0  0  0  0  0  0  0  0  0
   45.4612   -8.6987  -29.0988 C   0  0  0  0  0  0  0  0  0  0  0  0
   45.9720   -9.1032  -30.4674 C   0  0  0  0  0  0  0  0  0  0  0  0
   47.4878   -9.1049  -30.4731 C   0  0  0  0  0  0  0  0  0  0  0  0
   47.9987   -9.5094  -31.8417 C   0  0  0  0  0  0  0  0  0  0  0  0
   49.5145   -9.5110  -31.8474 C   0  0  0  0  0  0  0  0  0  0  0  0
   50.0253   -9.9155  -33.2160 C   0  0  0  0  0  0  0  0  0  0  0  0
   51.5412   -9.9152  -33.2223 C   0  0  0  0  0  0  0  0  0  0  0  0
   52.0520  -10.3197  -34.5909 C   0  0  0  0  0  0  0  0  0  0  0  0
   53.5678  -10.3213  -34.5966 C   0  0  0  0  0  0  0  0  0  0  0  0
   54.0787  -10.7278  -35.9647 C   0  0  0  0  0  0  0  0  0  0  0  0
   55.5945  -10.7275  -35.9709 C   0  0  0  0  0  0  0  0  0  0  0  0
   56.1053  -11.1359  -37.3384 C   0  0  0  0  0  0  0  0  0  0  0  0
   57.6211  -11.1336  -37.3453 C   0  0  0  0  0  0  0  0  0  0  0  0
   58.1320  -11.5439  -38.7122 C   0  0  0  0  0  0  0  0  0  0  0  0
   59.6478  -11.5398  -38.7196 C   0  0  0  0  0  0  0  0  0  0  0  0
   60.1587  -11.9501  -40.0865 C   0  0  0  0  0  0  0  0  0  0  0  0
   61.6745  -11.9478  -40.0933 C   0  0  0  0  0  0  0  0  0  0  0  0
   62.1853  -12.3581  -41.4602 C   0  0  0  0  0  0  0  0  0  0  0  0
   63.7011  -12.3559  -41.4671 C   0  0  0  0  0  0  0  0  0  0  0  0
   64.2120  -12.7662  -42.8340 C   0  0  0  0  0  0  0  0  0  0  0  0
   65.7278  -12.7640  -42.8408 C   0  0  0  0  0  0  0  0  0  0  0  0
   66.2386  -13.1743  -44.2077 C   0  0  0  0  0  0  0  0  0  0  0  0
   67.7544  -13.1721  -44.2145 C   0  0  0  0  0  0  0  0  0  0  0  0
   68.2653  -13.5823  -45.5814 C   0  0  0  0  0  0  0  0  0  0  0  0
   69.7811  -13.5801  -45.5883 C   0  0  0  0  0  0  0  0  0  0  0  0
   70.2919  -13.9905  -46.9552 C   0  0  0  0  0  0  0  0  0  0  0  0
   71.8079  -13.9901  -46.9613 C   0  0  0  0  0  0  0  0  0  0  0  0
   72.3184  -14.4005  -48.3287 C   0  0  0  0  0  0  0  0  0  0  0  0
   73.8348  -14.4001  -48.3342 C   0  0  0  0  0  0  0  0  0  0  0  0
   74.3450  -14.8106  -49.7021 C   0  0  0  0  0  0  0  0  0  0  0  0
   75.8618  -14.8101  -49.7073 C   0  0  0  0  0  0  0  0  0  0  0  0
   76.3722  -15.2207  -51.0756 C   0  0  0  0  0  0  0  0  0  0  0  0
   77.8896  -15.2222  -51.0808 C   0  0  0  0  0  0  0  0  0  0  0  0
   78.4023  -15.6328  -52.4488 C   0  0  0  0  0  0  0  0  0  0  0  0
   79.9208  -15.6343  -52.4536 C   0  0  0  0  0  0  0  0  0  0  0  0
   80.4378  -16.0477  -53.8240 C   0  0  0  0  0  0  0  0  0  0  0  0
   81.9596  -16.0534  -53.8360 C   0  0  0  0  0  0  0  0  0  0  0  0
   82.4705  -16.4658  -55.2030 C   0  0  0  0  0  0  0  0  0  0  0  0
    3.1475    2.5807   -3.7590 H   0  0  0  0  0  0  0  0  0  0  0  0
    3.2106    1.1525   -4.8086 H   0  0  0  0  0  0  0  0  0  0  0  0
    2.9788    2.7633   -5.5151 H   0  0  0  0  0  0  0  0  0  0  0  0
    5.4923    1.8244   -4.0357 H   0  0  0  0  0  0  0  0  0  0  0  0
    5.2617    3.4275   -4.7389 H   0  0  0  0  0  0  0  0  0  0  0  0
    4.9854    2.3939   -7.0071 H   0  0  0  0  0  0  0  0  0  0  0  0
    5.2129    0.7897   -6.3045 H   0  0  0  0  0  0  0  0  0  0  0  0
    7.4917    1.4554   -5.5160 H   0  0  0  0  0  0  0  0  0  0  0  0
    7.2668    3.0594   -6.2248 H   0  0  0  0  0  0  0  0  0  0  0  0
    6.9953    2.0200   -8.4938 H   0  0  0  0  0  0  0  0  0  0  0  0
    7.2229    0.4195   -7.7870 H   0  0  0  0  0  0  0  0  0  0  0  0
    9.2479    2.7125   -7.7476 H   0  0  0  0  0  0  0  0  0  0  0  0
    9.3116    1.2759   -8.8000 H   0  0  0  0  0  0  0  0  0  0  0  0
   11.8018   -1.6783   -8.2376 H   0  0  0  0  0  0  0  0  0  0  0  0
   11.8136   -3.3749   -7.7184 H   0  0  0  0  0  0  0  0  0  0  0  0
   15.8031   -3.4326   -7.9756 H   0  0  0  0  0  0  0  0  0  0  0  0
   15.7941   -1.7349   -8.4837 H   0  0  0  0  0  0  0  0  0  0  0  0
   15.5742   -2.4489  -10.8698 H   0  0  0  0  0  0  0  0  0  0  0  0
   15.5813   -4.1475  -10.3627 H   0  0  0  0  0  0  0  0  0  0  0  0
   17.5033   -2.8314  -12.1691 H   0  0  0  0  0  0  0  0  0  0  0  0
   17.5080   -4.5283  -11.6607 H   0  0  0  0  0  0  0  0  0  0  0  0
   19.7512   -4.2114  -10.6172 H   0  0  0  0  0  0  0  0  0  0  0  0
   19.7463   -2.5115  -11.1238 H   0  0  0  0  0  0  0  0  0  0  0  0
   21.6760   -4.5943  -11.9264 H   0  0  0  0  0  0  0  0  0  0  0  0
   21.6691   -2.8942  -12.4317 H   0  0  0  0  0  0  0  0  0  0  0  0
   21.3803   -3.6028  -14.8061 H   0  0  0  0  0  0  0  0  0  0  0  0
   21.3896   -5.3004  -14.3008 H   0  0  0  0  0  0  0  0  0  0  0  0
   23.2976   -3.9735  -16.0984 H   0  0  0  0  0  0  0  0  0  0  0  0
   23.3048   -5.6801  -15.5890 H   0  0  0  0  0  0  0  0  0  0  0  0
   25.5534   -5.3497  -14.5637 H   0  0  0  0  0  0  0  0  0  0  0  0
   25.5463   -3.6705  -15.0651 H   0  0  0  0  0  0  0  0  0  0  0  0
   25.3264   -4.3822  -17.4650 H   0  0  0  0  0  0  0  0  0  0  0  0
   25.3357   -6.0732  -16.9591 H   0  0  0  0  0  0  0  0  0  0  0  0
   27.6032   -5.7607  -15.9552 H   0  0  0  0  0  0  0  0  0  0  0  0
   27.5938   -4.0690  -16.4613 H   0  0  0  0  0  0  0  0  0  0  0  0
   27.3472   -4.7840  -18.8491 H   0  0  0  0  0  0  0  0  0  0  0  0
   27.3566   -6.4768  -18.3428 H   0  0  0  0  0  0  0  0  0  0  0  0
   29.6272   -6.1628  -17.3354 H   0  0  0  0  0  0  0  0  0  0  0  0
   29.6178   -4.4702  -17.8417 H   0  0  0  0  0  0  0  0  0  0  0  0
   29.3774   -5.1854  -20.2276 H   0  0  0  0  0  0  0  0  0  0  0  0
   29.3868   -6.8776  -19.7215 H   0  0  0  0  0  0  0  0  0  0  0  0
   31.6548   -6.5630  -18.7119 H   0  0  0  0  0  0  0  0  0  0  0  0
   31.6454   -4.8708  -19.2180 H   0  0  0  0  0  0  0  0  0  0  0  0
   31.4045   -5.5858  -21.6040 H   0  0  0  0  0  0  0  0  0  0  0  0
   31.4139   -7.2780  -21.0978 H   0  0  0  0  0  0  0  0  0  0  0  0
   33.6817   -6.9635  -20.0881 H   0  0  0  0  0  0  0  0  0  0  0  0
   33.6724   -5.2711  -20.5943 H   0  0  0  0  0  0  0  0  0  0  0  0
   33.4324   -5.9853  -22.9801 H   0  0  0  0  0  0  0  0  0  0  0  0
   33.4395   -7.6780  -22.4747 H   0  0  0  0  0  0  0  0  0  0  0  0
   35.7074   -7.3665  -21.4635 H   0  0  0  0  0  0  0  0  0  0  0  0
   35.7004   -5.6740  -21.9690 H   0  0  0  0  0  0  0  0  0  0  0  0
   35.4602   -6.3868  -24.3552 H   0  0  0  0  0  0  0  0  0  0  0  0
   35.4650   -8.0795  -23.8507 H   0  0  0  0  0  0  0  0  0  0  0  0
   37.7329   -7.7726  -22.8396 H   0  0  0  0  0  0  0  0  0  0  0  0
   37.7283   -6.0792  -23.3418 H   0  0  0  0  0  0  0  0  0  0  0  0
   37.4880   -6.7871  -25.7295 H   0  0  0  0  0  0  0  0  0  0  0  0
   37.4905   -8.4809  -25.2282 H   0  0  0  0  0  0  0  0  0  0  0  0
   39.7584   -8.1787  -24.2156 H   0  0  0  0  0  0  0  0  0  0  0  0
   39.7562   -6.4843  -24.7147 H   0  0  0  0  0  0  0  0  0  0  0  0
   39.5159   -7.1875  -27.1039 H   0  0  0  0  0  0  0  0  0  0  0  0
   39.5159   -8.8822  -26.6056 H   0  0  0  0  0  0  0  0  0  0  0  0
   41.7840   -8.5827  -25.5898 H   0  0  0  0  0  0  0  0  0  0  0  0
   41.7839   -6.8887  -26.0903 H   0  0  0  0  0  0  0  0  0  0  0  0
   41.5426   -7.5947  -28.4792 H   0  0  0  0  0  0  0  0  0  0  0  0
   41.5426   -9.2887  -27.9786 H   0  0  0  0  0  0  0  0  0  0  0  0
   43.8106   -8.9889  -26.9641 H   0  0  0  0  0  0  0  0  0  0  0  0
   43.8106   -7.2949  -27.4647 H   0  0  0  0  0  0  0  0  0  0  0  0
   43.5693   -8.0008  -29.8535 H   0  0  0  0  0  0  0  0  0  0  0  0
   43.5693   -9.6948  -29.3529 H   0  0  0  0  0  0  0  0  0  0  0  0
   45.8373   -9.3950  -28.3384 H   0  0  0  0  0  0  0  0  0  0  0  0
   45.8373   -7.7010  -28.8390 H   0  0  0  0  0  0  0  0  0  0  0  0
   45.5959   -8.4069  -31.2278 H   0  0  0  0  0  0  0  0  0  0  0  0
   45.5959  -10.1009  -30.7272 H   0  0  0  0  0  0  0  0  0  0  0  0
   47.8639   -9.8011  -29.7127 H   0  0  0  0  0  0  0  0  0  0  0  0
   47.8639   -8.1071  -30.2133 H   0  0  0  0  0  0  0  0  0  0  0  0
   47.6226   -8.8131  -32.6021 H   0  0  0  0  0  0  0  0  0  0  0  0
   47.6226  -10.5071  -32.1015 H   0  0  0  0  0  0  0  0  0  0  0  0
   49.8906  -10.2073  -31.0870 H   0  0  0  0  0  0  0  0  0  0  0  0
   49.8906   -8.5133  -31.5876 H   0  0  0  0  0  0  0  0  0  0  0  0
   49.6481   -9.2201  -33.9767 H   0  0  0  0  0  0  0  0  0  0  0  0
   49.6504  -10.9138  -33.4752 H   0  0  0  0  0  0  0  0  0  0  0  0
   51.9184  -10.6106  -32.4617 H   0  0  0  0  0  0  0  0  0  0  0  0
   51.9161   -8.9169  -32.9632 H   0  0  0  0  0  0  0  0  0  0  0  0
   51.6759   -9.6235  -35.3513 H   0  0  0  0  0  0  0  0  0  0  0  0
   51.6759  -11.3174  -34.8507 H   0  0  0  0  0  0  0  0  0  0  0  0
   53.9440  -11.0166  -33.8353 H   0  0  0  0  0  0  0  0  0  0  0  0
   53.9438   -9.3232  -34.3382 H   0  0  0  0  0  0  0  0  0  0  0  0
   53.7014  -10.0334  -36.7263 H   0  0  0  0  0  0  0  0  0  0  0  0
   53.7037  -11.7265  -36.2224 H   0  0  0  0  0  0  0  0  0  0  0  0
   55.9718  -11.4208  -35.2084 H   0  0  0  0  0  0  0  0  0  0  0  0
   55.9693   -9.7284  -35.7146 H   0  0  0  0  0  0  0  0  0  0  0  0
   55.7269  -10.4434  -38.1012 H   0  0  0  0  0  0  0  0  0  0  0  0
   55.7315  -12.1355  -37.5941 H   0  0  0  0  0  0  0  0  0  0  0  0
   57.9997  -11.8250  -36.5816 H   0  0  0  0  0  0  0  0  0  0  0  0
   57.9948  -10.1336  -37.0909 H   0  0  0  0  0  0  0  0  0  0  0  0
   57.7524  -10.8534  -39.4761 H   0  0  0  0  0  0  0  0  0  0  0  0
   57.7594  -12.5445  -38.9658 H   0  0  0  0  0  0  0  0  0  0  0  0
   60.0274  -12.2303  -37.9557 H   0  0  0  0  0  0  0  0  0  0  0  0
   60.0204  -10.5392  -38.4659 H   0  0  0  0  0  0  0  0  0  0  0  0
   59.7801  -11.2587  -40.8502 H   0  0  0  0  0  0  0  0  0  0  0  0
   59.7850  -12.9501  -40.3408 H   0  0  0  0  0  0  0  0  0  0  0  0
   62.0529  -12.6392  -39.3296 H   0  0  0  0  0  0  0  0  0  0  0  0
   62.0482  -10.9478  -39.8390 H   0  0  0  0  0  0  0  0  0  0  0  0
   61.8068  -11.6668  -42.2239 H   0  0  0  0  0  0  0  0  0  0  0  0
   61.8116  -13.3582  -41.7145 H   0  0  0  0  0  0  0  0  0  0  0  0
   64.0796  -13.0473  -40.7033 H   0  0  0  0  0  0  0  0  0  0  0  0
   64.0748  -11.3559  -41.2128 H   0  0  0  0  0  0  0  0  0  0  0  0
   63.8335  -12.0749  -43.5977 H   0  0  0  0  0  0  0  0  0  0  0  0
   63.8382  -13.7662  -43.0883 H   0  0  0  0  0  0  0  0  0  0  0  0
   66.1062  -13.4553  -42.0771 H   0  0  0  0  0  0  0  0  0  0  0  0
   66.1015  -11.7640  -42.5865 H   0  0  0  0  0  0  0  0  0  0  0  0
   65.8602  -12.4829  -44.9714 H   0  0  0  0  0  0  0  0  0  0  0  0
   65.8649  -14.1743  -44.4620 H   0  0  0  0  0  0  0  0  0  0  0  0
   68.1329  -13.8634  -43.4508 H   0  0  0  0  0  0  0  0  0  0  0  0
   68.1282  -12.1721  -43.9602 H   0  0  0  0  0  0  0  0  0  0  0  0
   67.8868  -12.8910  -46.3452 H   0  0  0  0  0  0  0  0  0  0  0  0
   67.8916  -14.5824  -45.8357 H   0  0  0  0  0  0  0  0  0  0  0  0
   70.1595  -14.2715  -44.8245 H   0  0  0  0  0  0  0  0  0  0  0  0
   70.1549  -12.5801  -45.3340 H   0  0  0  0  0  0  0  0  0  0  0  0
   69.9146  -13.2983  -47.7187 H   0  0  0  0  0  0  0  0  0  0  0  0
   69.9171  -14.9899  -47.2101 H   0  0  0  0  0  0  0  0  0  0  0  0
   72.1850  -14.6823  -46.1980 H   0  0  0  0  0  0  0  0  0  0  0  0
   72.1827  -12.9908  -46.7065 H   0  0  0  0  0  0  0  0  0  0  0  0
   71.9414  -13.7083  -49.0919 H   0  0  0  0  0  0  0  0  0  0  0  0
   71.9438  -15.3998  -48.5833 H   0  0  0  0  0  0  0  0  0  0  0  0
   74.2117  -15.0924  -47.5711 H   0  0  0  0  0  0  0  0  0  0  0  0
   74.2094  -13.4008  -48.0797 H   0  0  0  0  0  0  0  0  0  0  0  0
   73.9682  -14.1182  -50.4649 H   0  0  0  0  0  0  0  0  0  0  0  0
   73.9706  -15.8098  -49.9563 H   0  0  0  0  0  0  0  0  0  0  0  0
   76.2384  -15.5024  -48.9444 H   0  0  0  0  0  0  0  0  0  0  0  0
   76.2361  -13.8109  -49.4529 H   0  0  0  0  0  0  0  0  0  0  0  0
   75.9963  -14.5275  -51.8380 H   0  0  0  0  0  0  0  0  0  0  0  0
   75.9963  -16.2192  -51.3302 H   0  0  0  0  0  0  0  0  0  0  0  0
   78.2643  -15.9152  -50.3173 H   0  0  0  0  0  0  0  0  0  0  0  0
   78.2643  -14.2234  -50.8250 H   0  0  0  0  0  0  0  0  0  0  0  0
   78.0254  -14.9397  -53.2111 H   0  0  0  0  0  0  0  0  0  0  0  0
   78.0254  -16.6312  -52.7033 H   0  0  0  0  0  0  0  0  0  0  0  0
   80.2941  -16.3261  -51.6885 H   0  0  0  0  0  0  0  0  0  0  0  0
   80.2941  -14.6348  -52.1987 H   0  0  0  0  0  0  0  0  0  0  0  0
   80.0600  -15.3541  -54.5836 H   0  0  0  0  0  0  0  0  0  0  0  0
   80.0577  -17.0444  -54.0746 H   0  0  0  0  0  0  0  0  0  0  0  0
   82.3377  -16.7472  -53.0758 H   0  0  0  0  0  0  0  0  0  0  0  0
   82.3400  -15.0561  -53.5850 H   0  0  0  0  0  0  0  0  0  0  0  0
   82.1158  -17.4690  -55.4599 H   0  0  0  0  0  0  0  0  0  0  0  0
   83.5622  -16.4708  -55.2148 H   0  0  0  0  0  0  0  0  0  0  0  0
   82.1181  -15.7703  -55.9714 H   0  0  0  0  0  0  0  0  0  0  0  0
  1  2  1  0  0  0  0
  1 82  1  0  0  0  0
  1 83  1  0  0  0  0
  1 84  1  0  0  0  0
  2  3  1  0  0  0  0
  2 85  1  0  0  0  0
  2 86  1  0  0  0  0
  3  4  1  0  0  0  0
  3 87  1  0  0  0  0
  3 88  1  0  0  0  0
  4  5  1  0  0  0  0
  4 89  1  0  0  0  0
  4 90  1  0  0  0  0
  5  6  1  0  0  0  0
  5 91  1  0  0  0  0
  5 92  1  0  0  0  0
  6  7  1  0  0  0  0
  6 93  1  0  0  0  0
  6 94  1  0  0  0  0
  7  8  1  0  0  0  0
  8  9  1  0  0  0  0
  9 10  1  0  0  0  0
 10 11  1  0  0  0  0
 11 12  1  0  0  0  0
 11 95  1  0  0  0  0
 11 96  1  0  0  0  0
 12 13  1  0  0  0  0
 13 14  1  0  0  0  0
 14 15  1  0  0  0  0
 14 97  1  0  0  0  0
 14 98  1  0  0  0  0
 15 16  1  0  0  0  0
 15 99  1  0  0  0  0
 15100  1  0  0  0  0
 16 17  1  0  0  0  0
 17 18  1  0  0  0  0
 17101  1  0  0  0  0
 17102  1  0  0  0  0
 18 19  1  0  0  0  0
 18103  1  0  0  0  0
 18104  1  0  0  0  0
 19 20  1  0  0  0  0
 20 21  1  0  0  0  0
 20105  1  0  0  0  0
 20106  1  0  0  0  0
 21 22  1  0  0  0  0
 21107  1  0  0  0  0
 21108  1  0  0  0  0
 22 23  1  0  0  0  0
 23 24  1  0  0  0  0
 23109  1  0  0  0  0
 23110  1  0  0  0  0
 24 25  1  0  0  0  0
 24111  1  0  0  0  0
 24112  1  0  0  0  0
 25 26  1  0  0  0  0
 25113  1  0  0  0  0
 25114  1  0  0  0  0
 26 27  1  0  0  0  0
 26115  1  0  0  0  0
 26116  1  0  0  0  0
 27 28  1  0  0  0  0
 27117  1  0  0  0  0
 27118  1  0  0  0  0
 28 29  1  0  0  0  0
 28119  1  0  0  0  0
 28120  1  0  0  0  0
 29 30  1  0  0  0  0
 29121  1  0  0  0  0
 29122  1  0  0  0  0
 30 31  1  0  0  0  0
 30123  1  0  0  0  0
 30124  1  0  0  0  0
 31 32  1  0  0  0  0
 31125  1  0  0  0  0
 31126  1  0  0  0  0
 32 33  1  0  0  0  0
 32127  1  0  0  0  0
 32128  1  0  0  0  0
 33 34  1  0  0  0  0
 33129  1  0  0  0  0
 33130  1  0  0  0  0
 34 35  1  0  0  0  0
 34131  1  0  0  0  0
 34132  1  0  0  0  0
 35 36  1  0  0  0  0
 35133  1  0  0  0  0
 35134  1  0  0  0  0
 36 37  1  0  0  0  0
 36135  1  0  0  0  0
 36136  1  0  0  0  0
 37 38  1  0  0  0  0
 37137  1  0  0  0  0
 37138  1  0  0  0  0
 38 39  1  0  0  0  0
 38139  1  0  0  0  0
 38140  1  0  0  0  0
 39 40  1  0  0  0  0
 39141  1  0  0  0  0
 39142  1  0  0  0  0
 40 41  1  0  0  0  0
 40143  1  0  0  0  0
 40144  1  0  0  0  0
 41 42  1  0  0  0  0
 41145  1  0  0  0  0
 41146  1  0  0  0  0
 42 43  1  0  0  0  0
 42147  1  0  0  0  0
 42148  1  0  0  0  0
 43 44  1  0  0  0  0
 43149  1  0  0  0  0
 43150  1  0  0  0  0
 44 45  1  0  0  0  0
 44151  1  0  0  0  0
 44152  1  0  0  0  0
 45 46  1  0  0  0  0
 45153  1  0  0  0  0
 45154  1  0  0  0  0
 46 47  1  0  0  0  0
 46155  1  0  0  0  0
 46156  1  0  0  0  0
 47 48  1  0  0  0  0
 47157  1  0  0  0  0
 47158  1  0  0  0  0
 48 49  1  0  0  0  0
 48159  1  0  0  0  0
 48160  1  0  0  0  0
 49 50  1  0  0  0  0
 49161  1  0  0  0  0
 49162  1  0  0  0  0
 50 51  1  0  0  0  0
 50163  1  0  0  0  0
 50164  1  0  0  0  0
 51 52  1  0  0  0  0
 51165  1  0  0  0  0
 51166  1  0  0  0  0
 52 53  1  0  0  0  0
 52167  1  0  0  0  0
 52168  1  0  0  0  0
 53 54  1  0  0  0  0
 53169  1  0  0  0  0
 53170  1  0  0  0  0
 54 55  1  0  0  0  0
 54171  1  0  0  0  0
 54172  1  0  0  0  0
 55 56  1  0  0  0  0
 55173  1  0  0  0  0
 55174  1  0  0  0  0
 56 57  1  0  0  0  0
 56175  1  0  0  0  0
 56176  1  0  0  0  0
 57 58  1  0  0  0  0
 57177  1  0  0  0  0
 57178  1  0  0  0  0
 58 59  1  0  0  0  0
 58179  1  0  0  0  0
 58180  1  0  0  0  0
 59 60  1  0  0  0  0
 59181  1  0  0  0  0
 59182  1  0  0  0  0
 60 61  1  0  0  0  0
 60183  1  0  0  0  0
 60184  1  0  0  0  0
 61 62  1  0  0  0  0
 61185  1  0  0  0  0
 61186  1  0  0  0  0
 62 63  1  0  0  0  0
 62187  1  0  0  0  0
 62188  1  0  0  0  0
 63 64  1  0  0  0  0
 63189  1  0  0  0  0
 63190  1  0  0  0  0
 64 65  1  0  0  0  0
 64191  1  0  0  0  0
 64192  1  0  0  0  0
 65 66  1  0  0  0  0
 65193  1  0  0  0  0
 65194  1  0  0  0  0
 66 67  1  0  0  0  0
 66195  1  0  0  0  0
 66196  1  0  0  0  0
 67 68  1  0  0  0  0
 67197  1  0  0  0  0
 67198  1  0  0  0  0
 68 69  1  0  0  0  0
 68199  1  0  0  0  0
 68200  1  0  0  0  0
 69 70  1  0  0  0  0
 69201  1  0  0  0  0
 69202  1  0  0  0  0
 70 71  1  0  0  0  0
 70203  1  0  0  0  0
 70204  1  0  0  0  0
 71 72  1  0  0  0  0
 71205  1  0  0  0  0
 71206  1  0  0  0  0
 72 73  1  0  0  0  0
 72207  1  0  0  0  0
 72208  1  0  0  0  0
 73 74  1  0  0  0  0
 73209  1  0  0  0  0
 73210  1  0  0  0  0
 74 75  1  0  0  0  0
 74211  1  0  0  0  0
 74212  1  0  0  0  0
 75 76  1  0  0  0  0
 75213  1  0  0  0  0
 75214  1  0  0  0  0
 76 77  1  0  0  0  0
 76215  1  0  0  0  0
 76216  1  0  0  0  0
 77 78  1  0  0  0  0
 77217  1  0  0  0  0
 77218  1  0  0  0  0
 78 79  1  0  0  0  0
 78219  1  0  0  0  0
 78220  1  0  0  0  0
 79 80  1  0  0  0  0
 79221  1  0  0  0  0
 79222  1  0  0  0  0
 80 81  1  0  0  0  0
 80223  1  0  0  0  0
 80224  1  0  0  0  0
 81225  1  0  0  0  0
 81226  1  0  0  0  0
 81227  1  0  0  0  0
M  END
$$$$
