
 OpenBabel04232216403D

105104  0  0  0  0  0  0  0  0999 V2000
   14.9499   -7.8638    6.5740 C   0  0  0  0  0  0  0  0  0  0  0  0
   14.3460   -8.1391    5.3780 C   0  0  0  0  0  0  0  0  0  0  0  0
   15.1428   -8.3434    4.1428 C   0  0  0  0  0  0  0  0  0  0  0  0
   14.7578   -7.3685    3.1225 N   0  0  0  0  0  0  0  0  0  0  0  0
   15.5402   -7.5965    1.9160 C   0  0  0  0  0  0  0  0  0  0  0  0
   15.1392   -6.5808    0.8585 C   0  0  0  0  0  0  0  0  0  0  0  0
   15.9456   -6.8061   -0.4121 C   0  0  0  0  0  0  0  0  0  0  0  0
   15.5446   -5.7948   -1.4713 C   0  0  0  0  0  0  0  0  0  0  0  0
   16.3496   -6.0192   -2.7392 C   0  0  0  0  0  0  0  0  0  0  0  0
   15.9499   -5.0062   -3.7988 C   0  0  0  0  0  0  0  0  0  0  0  0
   16.7561   -5.2275   -5.0695 C   0  0  0  0  0  0  0  0  0  0  0  0
   16.3565   -4.2108   -6.1307 C   0  0  0  0  0  0  0  0  0  0  0  0
   17.1484   -4.4171   -7.3994 C   0  0  0  0  0  0  0  0  0  0  0  0
   16.6977   -3.1929   -8.6936 S   0  0  0  0  0  0  0  0  0  0  0  0
   17.1088   -1.3313   -7.8933 S   0  0  0  0  0  0  0  0  0  0  0  0
   19.1460   -1.2629   -7.5112 S   0  0  0  0  0  0  0  0  0  0  0  0
   20.1758   -1.4978   -9.3016 S   0  0  0  0  0  0  0  0  0  0  0  0
   22.2361   -1.4443   -8.8937 S   0  0  0  0  0  0  0  0  0  0  0  0
   23.2784   -1.7227  -10.7035 S   0  0  0  0  0  0  0  0  0  0  0  0
   25.3488   -1.6528  -10.3110 S   0  0  0  0  0  0  0  0  0  0  0  0
   26.3919   -1.9346  -12.1226 S   0  0  0  0  0  0  0  0  0  0  0  0
   28.4633   -1.8678  -11.7297 S   0  0  0  0  0  0  0  0  0  0  0  0
   29.5065   -2.1466  -13.5418 S   0  0  0  0  0  0  0  0  0  0  0  0
   31.5779   -2.0826  -13.1485 S   0  0  0  0  0  0  0  0  0  0  0  0
   32.6212   -2.3644  -14.9601 S   0  0  0  0  0  0  0  0  0  0  0  0
   34.6926   -2.2975  -14.5672 S   0  0  0  0  0  0  0  0  0  0  0  0
   35.7358   -2.5765  -16.3793 S   0  0  0  0  0  0  0  0  0  0  0  0
   37.8072   -2.5124  -15.9860 S   0  0  0  0  0  0  0  0  0  0  0  0
   38.8504   -2.7942  -17.7976 S   0  0  0  0  0  0  0  0  0  0  0  0
   40.9219   -2.7329  -17.4038 S   0  0  0  0  0  0  0  0  0  0  0  0
   41.9651   -3.0117  -19.2159 S   0  0  0  0  0  0  0  0  0  0  0  0
   44.0365   -2.9533  -18.8217 S   0  0  0  0  0  0  0  0  0  0  0  0
   45.0797   -3.2295  -20.6342 S   0  0  0  0  0  0  0  0  0  0  0  0
   47.1511   -3.1682  -20.2405 S   0  0  0  0  0  0  0  0  0  0  0  0
   48.1944   -3.4416  -22.0533 S   0  0  0  0  0  0  0  0  0  0  0  0
   50.2658   -3.3831  -21.6592 S   0  0  0  0  0  0  0  0  0  0  0  0
   51.3090   -3.6537  -23.4725 S   0  0  0  0  0  0  0  0  0  0  0  0
   53.3804   -3.5981  -23.0779 S   0  0  0  0  0  0  0  0  0  0  0  0
   54.4236   -3.8658  -24.8916 S   0  0  0  0  0  0  0  0  0  0  0  0
   56.4951   -3.8130  -24.4966 S   0  0  0  0  0  0  0  0  0  0  0  0
   57.5383   -4.0835  -26.3099 S   0  0  0  0  0  0  0  0  0  0  0  0
   59.6097   -4.0334  -25.9146 S   0  0  0  0  0  0  0  0  0  0  0  0
   60.6529   -4.3067  -27.7275 S   0  0  0  0  0  0  0  0  0  0  0  0
   62.7243   -4.2595  -27.3317 S   0  0  0  0  0  0  0  0  0  0  0  0
   63.7675   -4.5300  -29.1450 S   0  0  0  0  0  0  0  0  0  0  0  0
   65.8389   -4.4799  -28.7496 S   0  0  0  0  0  0  0  0  0  0  0  0
   66.8821   -4.7477  -30.5633 S   0  0  0  0  0  0  0  0  0  0  0  0
   68.9535   -4.7005  -30.1675 S   0  0  0  0  0  0  0  0  0  0  0  0
   69.9968   -4.9653  -31.9816 S   0  0  0  0  0  0  0  0  0  0  0  0
   72.0681   -4.9210  -31.5854 S   0  0  0  0  0  0  0  0  0  0  0  0
   73.1114   -5.1887  -33.3991 S   0  0  0  0  0  0  0  0  0  0  0  0
   75.1828   -5.1413  -33.0033 S   0  0  0  0  0  0  0  0  0  0  0  0
   76.2260   -5.4119  -34.8166 S   0  0  0  0  0  0  0  0  0  0  0  0
   78.2974   -5.3674  -34.4204 S   0  0  0  0  0  0  0  0  0  0  0  0
   79.3406   -5.6351  -36.2341 S   0  0  0  0  0  0  0  0  0  0  0  0
   81.4120   -5.5879  -35.8383 S   0  0  0  0  0  0  0  0  0  0  0  0
   82.4552   -5.8529  -37.6524 S   0  0  0  0  0  0  0  0  0  0  0  0
   84.5266   -5.8028  -37.2571 S   0  0  0  0  0  0  0  0  0  0  0  0
   85.5699   -6.0706  -39.0708 S   0  0  0  0  0  0  0  0  0  0  0  0
   87.6413   -6.0234  -38.6749 S   0  0  0  0  0  0  0  0  0  0  0  0
   88.6845   -6.2882  -40.4891 S   0  0  0  0  0  0  0  0  0  0  0  0
   90.7559   -6.2382  -40.0937 S   0  0  0  0  0  0  0  0  0  0  0  0
   91.7992   -6.5060  -41.9074 S   0  0  0  0  0  0  0  0  0  0  0  0
   93.8706   -6.4531  -41.5124 S   0  0  0  0  0  0  0  0  0  0  0  0
   94.9138   -6.7237  -43.3257 S   0  0  0  0  0  0  0  0  0  0  0  0
   96.9852   -6.6736  -42.9303 S   0  0  0  0  0  0  0  0  0  0  0  0
   98.0284   -6.9469  -44.7432 S   0  0  0  0  0  0  0  0  0  0  0  0
  100.0998   -6.8996  -44.3473 S   0  0  0  0  0  0  0  0  0  0  0  0
  101.1430   -7.1701  -46.1606 S   0  0  0  0  0  0  0  0  0  0  0  0
  103.2144   -7.1201  -45.7652 S   0  0  0  0  0  0  0  0  0  0  0  0
  104.2577   -7.3878  -47.5789 S   0  0  0  0  0  0  0  0  0  0  0  0
  106.3291   -7.3406  -47.1831 S   0  0  0  0  0  0  0  0  0  0  0  0
  107.3723   -7.6112  -48.9964 S   0  0  0  0  0  0  0  0  0  0  0  0
  109.4435   -7.5610  -48.6010 S   0  0  0  0  0  0  0  0  0  0  0  0
  110.4860   -7.8346  -50.4132 S   0  0  0  0  0  0  0  0  0  0  0  0
  112.5548   -7.7871  -50.0171 S   0  0  0  0  0  0  0  0  0  0  0  0
  113.5844   -8.0479  -51.8291 S   0  0  0  0  0  0  0  0  0  0  0  0
  115.6327   -8.0545  -51.4351 S   0  0  0  0  0  0  0  0  0  0  0  0
  116.6458   -8.2957  -53.2450 S   0  0  0  0  0  0  0  0  0  0  0  0
  116.1297  -10.1497  -53.9799 S   0  0  0  0  0  0  0  0  0  0  0  0
   14.3660   -7.7269    7.4645 H   0  0  0  0  0  0  0  0  0  0  0  0
   16.0193   -7.7778    6.6308 H   0  0  0  0  0  0  0  0  0  0  0  0
   13.2734   -8.2271    5.3533 H   0  0  0  0  0  0  0  0  0  0  0  0
   14.9587   -9.3587    3.7731 H   0  0  0  0  0  0  0  0  0  0  0  0
   16.2123   -8.2519    4.3563 H   0  0  0  0  0  0  0  0  0  0  0  0
   14.9477   -6.4392    3.4950 H   0  0  0  0  0  0  0  0  0  0  0  0
   15.3580   -8.6085    1.5327 H   0  0  0  0  0  0  0  0  0  0  0  0
   16.6125   -7.4995    2.1263 H   0  0  0  0  0  0  0  0  0  0  0  0
   15.3143   -5.5624    1.2272 H   0  0  0  0  0  0  0  0  0  0  0  0
   14.0694   -6.6720    0.6349 H   0  0  0  0  0  0  0  0  0  0  0  0
   15.7754   -7.8226   -0.7870 H   0  0  0  0  0  0  0  0  0  0  0  0
   17.0168   -6.7114   -0.1963 H   0  0  0  0  0  0  0  0  0  0  0  0
   15.7153   -4.7775   -1.0978 H   0  0  0  0  0  0  0  0  0  0  0  0
   14.4737   -5.8896   -1.6894 H   0  0  0  0  0  0  0  0  0  0  0  0
   16.1780   -7.0365   -3.1125 H   0  0  0  0  0  0  0  0  0  0  0  0
   17.4206   -5.9264   -2.5200 H   0  0  0  0  0  0  0  0  0  0  0  0
   16.1191   -3.9904   -3.4200 H   0  0  0  0  0  0  0  0  0  0  0  0
   14.8783   -5.1013   -4.0139 H   0  0  0  0  0  0  0  0  0  0  0  0
   16.5840   -6.2453   -5.4395 H   0  0  0  0  0  0  0  0  0  0  0  0
   17.8258   -5.1363   -4.8446 H   0  0  0  0  0  0  0  0  0  0  0  0
   16.5292   -3.2070   -5.7358 H   0  0  0  0  0  0  0  0  0  0  0  0
   15.2866   -4.3104   -6.3408 H   0  0  0  0  0  0  0  0  0  0  0  0
   16.9862   -5.4228   -7.7930 H   0  0  0  0  0  0  0  0  0  0  0  0
   18.2301   -4.3289   -7.2036 H   0  0  0  0  0  0  0  0  0  0  0  0
  116.8203  -10.2476  -55.1375 H   0  0  0  0  0  0  0  0  0  0  0  0
  1  2  2  0  0  0  0
  1 81  1  0  0  0  0
  1 82  1  0  0  0  0
  2  3  1  0  0  0  0
  2 83  1  0  0  0  0
  3  4  1  0  0  0  0
  3 84  1  0  0  0  0
  3 85  1  0  0  0  0
  4  5  1  0  0  0  0
  4 86  1  0  0  0  0
  5  6  1  0  0  0  0
  5 87  1  0  0  0  0
  5 88  1  0  0  0  0
  6  7  1  0  0  0  0
  6 89  1  0  0  0  0
  6 90  1  0  0  0  0
  7  8  1  0  0  0  0
  7 91  1  0  0  0  0
  7 92  1  0  0  0  0
  8  9  1  0  0  0  0
  8 93  1  0  0  0  0
  8 94  1  0  0  0  0
  9 10  1  0  0  0  0
  9 95  1  0  0  0  0
  9 96  1  0  0  0  0
 10 11  1  0  0  0  0
 10 97  1  0  0  0  0
 10 98  1  0  0  0  0
 11 12  1  0  0  0  0
 11 99  1  0  0  0  0
 11100  1  0  0  0  0
 12 13  1  0  0  0  0
 12101  1  0  0  0  0
 12102  1  0  0  0  0
 13 14  1  0  0  0  0
 13103  1  0  0  0  0
 13104  1  0  0  0  0
 14 15  1  0  0  0  0
 15 16  1  0  0  0  0
 16 17  1  0  0  0  0
 17 18  1  0  0  0  0
 18 19  1  0  0  0  0
 19 20  1  0  0  0  0
 20 21  1  0  0  0  0
 21 22  1  0  0  0  0
 22 23  1  0  0  0  0
 23 24  1  0  0  0  0
 24 25  1  0  0  0  0
 25 26  1  0  0  0  0
 26 27  1  0  0  0  0
 27 28  1  0  0  0  0
 28 29  1  0  0  0  0
 29 30  1  0  0  0  0
 30 31  1  0  0  0  0
 31 32  1  0  0  0  0
 32 33  1  0  0  0  0
 33 34  1  0  0  0  0
 34 35  1  0  0  0  0
 35 36  1  0  0  0  0
 36 37  1  0  0  0  0
 37 38  1  0  0  0  0
 38 39  1  0  0  0  0
 39 40  1  0  0  0  0
 40 41  1  0  0  0  0
 41 42  1  0  0  0  0
 42 43  1  0  0  0  0
 43 44  1  0  0  0  0
 44 45  1  0  0  0  0
 45 46  1  0  0  0  0
 46 47  1  0  0  0  0
 47 48  1  0  0  0  0
 48 49  1  0  0  0  0
 49 50  1  0  0  0  0
 50 51  1  0  0  0  0
 51 52  1  0  0  0  0
 52 53  1  0  0  0  0
 53 54  1  0  0  0  0
 54 55  1  0  0  0  0
 55 56  1  0  0  0  0
 56 57  1  0  0  0  0
 57 58  1  0  0  0  0
 58 59  1  0  0  0  0
 59 60  1  0  0  0  0
 60 61  1  0  0  0  0
 61 62  1  0  0  0  0
 62 63  1  0  0  0  0
 63 64  1  0  0  0  0
 64 65  1  0  0  0  0
 65 66  1  0  0  0  0
 66 67  1  0  0  0  0
 67 68  1  0  0  0  0
 68 69  1  0  0  0  0
 69 70  1  0  0  0  0
 70 71  1  0  0  0  0
 71 72  1  0  0  0  0
 72 73  1  0  0  0  0
 73 74  1  0  0  0  0
 74 75  1  0  0  0  0
 75 76  1  0  0  0  0
 76 77  1  0  0  0  0
 77 78  1  0  0  0  0
 78 79  1  0  0  0  0
 79 80  1  0  0  0  0
 80105  1  0  0  0  0
M  END
$$$$
