
 OpenBabel04232216473D

 48 50  0  0  1  0  0  0  0  0999 V2000
    7.0122    0.9276    0.6761 C   0  0  0  0  0  0  0  0  0  0  0  0
    5.5915    1.4769    0.5615 C   0  0  0  0  0  0  0  0  0  0  0  0
    4.6436    0.8073    1.5594 C   0  0  0  0  0  0  0  0  0  0  0  0
    4.0959   -0.4208    1.6357 C   0  0  0  0  0  0  0  0  0  0  0  0
    4.1756   -1.7764    1.1873 C   0  0  0  0  0  0  0  0  0  0  0  0
    4.8410   -3.0525    1.4004 C   0  0  0  0  0  0  0  0  0  0  0  0
    3.7938   -0.9494    0.3079 C   0  0  0  0  0  0  0  0  0  0  0  0
    3.8014   -0.5863   -1.0374 C   0  0  0  0  0  0  0  0  0  0  0  0
    5.0891   -0.8669   -1.7883 C   0  0  0  0  0  0  0  0  0  0  0  0
    2.9147    0.3832   -1.3372 C   0  0  0  0  0  0  0  0  0  0  0  0
    1.5660    0.4741   -0.6604 C   0  0  0  0  0  0  0  0  0  0  0  0
    3.4095    1.4699   -2.1381 C   0  0  0  0  0  0  0  0  0  0  0  0
    3.4187    2.9303   -1.7450 C   0  0  0  0  0  0  0  0  0  0  0  0
    2.0456    3.4003   -1.1959 C   0  0  0  0  0  0  0  0  0  0  0  0
    3.8204    3.5754   -3.0794 C   0  0  0  0  0  0  0  0  0  0  0  0
    3.0555    4.5045   -3.6688 C   0  0  0  0  0  0  0  0  0  0  0  0
    3.3241    5.8804   -3.2383 C   0  0  0  0  0  0  0  0  0  0  0  0
    2.1061    6.5415   -2.6186 C   0  0  0  0  0  0  0  0  0  0  0  0
    4.5326    6.2153   -2.7337 C   0  0  0  0  0  0  0  0  0  0  0  0
    4.9672    5.8438   -1.3530 C   0  0  0  0  0  0  0  0  0  0  0  0
    4.9400    4.7534   -0.5665 C   0  0  0  0  0  0  0  0  0  0  0  0
    4.4847    3.3180   -0.6525 C   0  0  3  0  0  3  0  0  0  0  0  0
    5.5138    2.4635   -0.2818 N   0  0  0  0  0  0  0  0  0  0  0  0
    7.0163   -0.1023    1.0398 H   0  0  0  0  0  0  0  0  0  0  0  0
    7.5769    1.5557    1.3730 H   0  0  0  0  0  0  0  0  0  0  0  0
    7.5043    0.9588   -0.2997 H   0  0  0  0  0  0  0  0  0  0  0  0
    4.8170    1.2239    2.5594 H   0  0  0  0  0  0  0  0  0  0  0  0
    4.1072   -3.8255    1.5900 H   0  0  0  0  0  0  0  0  0  0  0  0
    5.5207   -3.0076    2.2677 H   0  0  0  0  0  0  0  0  0  0  0  0
    5.4308   -3.3480    0.5275 H   0  0  0  0  0  0  0  0  0  0  0  0
    4.9435   -0.8439   -2.8742 H   0  0  0  0  0  0  0  0  0  0  0  0
    5.8501   -0.1234   -1.5446 H   0  0  0  0  0  0  0  0  0  0  0  0
    5.4973   -1.8520   -1.5433 H   0  0  0  0  0  0  0  0  0  0  0  0
    1.1775   -0.5230   -0.4058 H   0  0  0  0  0  0  0  0  0  0  0  0
    0.8167    0.9245   -1.3157 H   0  0  0  0  0  0  0  0  0  0  0  0
    1.6173    1.0342    0.2818 H   0  0  0  0  0  0  0  0  0  0  0  0
    4.2972    1.2473   -2.7299 H   0  0  0  0  0  0  0  0  0  0  0  0
    1.2241    3.1488   -1.8771 H   0  0  0  0  0  0  0  0  0  0  0  0
    2.0004    4.4745   -1.0155 H   0  0  0  0  0  0  0  0  0  0  0  0
    1.8209    2.9798   -0.2134 H   0  0  0  0  0  0  0  0  0  0  0  0
    4.9067    3.6819   -3.1413 H   0  0  0  0  0  0  0  0  0  0  0  0
    1.9947    4.2917   -3.7906 H   0  0  0  0  0  0  0  0  0  0  0  0
    2.1808    6.4936   -1.5241 H   0  0  0  0  0  0  0  0  0  0  0  0
    1.1707    6.0348   -2.8833 H   0  0  0  0  0  0  0  0  0  0  0  0
    2.0234    7.5899   -2.9018 H   0  0  0  0  0  0  0  0  0  0  0  0
    4.7688    7.2789   -2.8681 H   0  0  0  0  0  0  0  0  0  0  0  0
    5.4537    6.7246   -0.9133 H   0  0  0  0  0  0  0  0  0  0  0  0
    5.4318    4.9199    0.3970 H   0  0  0  0  0  0  0  0  0  0  0  0
  1  2  1  0  0  0  0
  1 24  1  0  0  0  0
  1 25  1  0  0  0  0
  1 26  1  0  0  0  0
  2  3  1  0  0  0  0
  2 23  2  3  0  0  0
  3  4  2  3  0  0  0
  3 27  1  0  0  0  0
  4  5  1  0  0  0  0
  4  7  1  0  0  0  0
  5  6  1  0  0  0  0
  5  7  2  0  0  0  0
  6 28  1  0  0  0  0
  6 29  1  0  0  0  0
  6 30  1  0  0  0  0
  7  8  1  0  0  0  0
  8  9  1  0  0  0  0
  8 10  2  3  0  0  0
  9 31  1  0  0  0  0
  9 32  1  0  0  0  0
  9 33  1  0  0  0  0
 10 11  1  0  0  0  0
 10 12  1  0  0  0  0
 11 34  1  0  0  0  0
 11 35  1  0  0  0  0
 11 36  1  0  0  0  0
 12 13  2  0  0  0  0
 12 37  1  0  0  0  0
 13 14  1  0  0  0  0
 13 15  1  0  0  0  0
 13 22  1  0  0  0  0
 14 38  1  0  0  0  0
 14 39  1  0  0  0  0
 14 40  1  0  0  0  0
 15 16  2  0  0  0  0
 15 41  1  0  0  0  0
 16 17  1  0  0  0  0
 16 42  1  0  0  0  0
 17 18  1  0  0  0  0
 17 19  2  0  0  0  0
 18 43  1  0  0  0  0
 18 44  1  0  0  0  0
 18 45  1  0  0  0  0
 19 20  1  0  0  0  0
 19 46  1  0  0  0  0
 20 21  2  0  0  0  0
 20 47  1  0  0  0  0
 21 22  1  0  0  0  0
 21 48  1  0  0  0  0
 22 23  1  0  0  0  0
M  END
$$$$
