
 OpenBabel04232216583D

159158  0  0  0  0  0  0  0  0999 V2000
   21.8522  -24.4354    2.7361 N   0  0  0  0  0  0  0  0  0  0  0  0
   21.4292  -23.5195    1.7258 N   0  0  0  0  0  0  0  0  0  0  0  0
   21.7200  -24.1103    0.4229 C   0  0  0  0  0  0  0  0  0  0  0  0
   21.2691  -23.1662   -0.6867 C   0  0  0  0  0  0  0  0  0  0  0  0
   21.5653  -23.7845   -2.0497 C   0  0  0  0  0  0  0  0  0  0  0  0
   21.0996  -22.8600   -3.0689 N   0  0  0  0  0  0  0  0  0  0  0  0
   21.3706  -23.4238   -4.3564 N   0  0  0  0  0  0  0  0  0  0  0  0
   20.9692  -22.5283   -5.3842 N   0  0  0  0  0  0  0  0  0  0  0  0
   21.6760  -21.2953   -5.3065 N   0  0  0  0  0  0  0  0  0  0  0  0
   23.0776  -21.4994   -5.4114 N   0  0  0  0  0  0  0  0  0  0  0  0
   23.3623  -22.0917   -6.6561 N   0  0  0  0  0  0  0  0  0  0  0  0
   22.8834  -21.2321   -7.6661 N   0  0  0  0  0  0  0  0  0  0  0  0
   23.5963  -19.9854   -7.5862 N   0  0  0  0  0  0  0  0  0  0  0  0
   25.0194  -20.1650   -7.6953 N   0  0  0  0  0  0  0  0  0  0  0  0
   25.3801  -20.7522   -8.9509 N   0  0  0  0  0  0  0  0  0  0  0  0
   24.9305  -19.9035  -10.0323 N   0  0  0  0  0  0  0  0  0  0  0  0
   25.5841  -18.6020   -9.9192 N   0  0  0  0  0  0  0  0  0  0  0  0
   27.0250  -18.7571   -9.9728 N   0  0  0  0  0  0  0  0  0  0  0  0
   27.4011  -19.3685  -11.2024 N   0  0  0  0  0  0  0  0  0  0  0  0
   26.9366  -18.5628  -12.2677 N   0  0  0  0  0  0  0  0  0  0  0  0
   27.5313  -17.2704  -12.1667 N   0  0  0  0  0  0  0  0  0  0  0  0
   28.9475  -17.3815  -12.2051 N   0  0  0  0  0  0  0  0  0  0  0  0
   29.3573  -17.9880  -13.4156 N   0  0  0  0  0  0  0  0  0  0  0  0
   28.9123  -17.2081  -14.5288 N   0  0  0  0  0  0  0  0  0  0  0  0
   29.4888  -15.8761  -14.4556 N   0  0  0  0  0  0  0  0  0  0  0  0
   30.9430  -15.9547  -14.4679 N   0  0  0  0  0  0  0  0  0  0  0  0
   31.3346  -16.6160  -15.6633 N   0  0  0  0  0  0  0  0  0  0  0  0
   30.8054  -15.8552  -16.7533 N   0  0  0  0  0  0  0  0  0  0  0  0
   31.3545  -14.5242  -16.6559 N   0  0  0  0  0  0  0  0  0  0  0  0
   32.7825  -14.5906  -16.6593 N   0  0  0  0  0  0  0  0  0  0  0  0
   33.2536  -15.1883  -17.8750 N   0  0  0  0  0  0  0  0  0  0  0  0
   32.8407  -14.4250  -19.0469 N   0  0  0  0  0  0  0  0  0  0  0  0
   33.3553  -13.0631  -19.0324 N   0  0  0  0  0  0  0  0  0  0  0  0
   34.7714  -13.1048  -18.9895 N   0  0  0  0  0  0  0  0  0  0  0  0
   35.2088  -13.7756  -20.1716 N   0  0  0  0  0  0  0  0  0  0  0  0
   34.7451  -13.0624  -21.3317 N   0  0  0  0  0  0  0  0  0  0  0  0
   35.1925  -11.7203  -21.2766 N   0  0  0  0  0  0  0  0  0  0  0  0
   36.6253  -11.7142  -21.2853 N   0  0  0  0  0  0  0  0  0  0  0  0
   37.1386  -12.3859  -22.4695 N   0  0  0  0  0  0  0  0  0  0  0  0
   36.6580  -11.7161  -23.6567 N   0  0  0  0  0  0  0  0  0  0  0  0
   37.1081  -10.3590  -23.6116 N   0  0  0  0  0  0  0  0  0  0  0  0
   38.5404  -10.3813  -23.5105 N   0  0  0  0  0  0  0  0  0  0  0  0
   39.0669  -11.0576  -24.6769 N   0  0  0  0  0  0  0  0  0  0  0  0
   38.5894  -10.4099  -25.8710 N   0  0  0  0  0  0  0  0  0  0  0  0
   39.0891   -9.0481  -25.9438 N   0  0  0  0  0  0  0  0  0  0  0  0
   40.5304   -8.9833  -25.8866 N   0  0  0  0  0  0  0  0  0  0  0  0
   41.0945   -9.6645  -26.9986 N   0  0  0  0  0  0  0  0  0  0  0  0
   40.6191   -9.0393  -28.1856 N   0  0  0  0  0  0  0  0  0  0  0  0
   41.0185   -7.6700  -28.1756 N   0  0  0  0  0  0  0  0  0  0  0  0
   42.4445   -7.5959  -28.0736 N   0  0  0  0  0  0  0  0  0  0  0  0
   43.0434   -8.2748  -29.2006 N   0  0  0  0  0  0  0  0  0  0  0  0
   42.5634   -7.6889  -30.4406 N   0  0  0  0  0  0  0  0  0  0  0  0
   42.9339   -6.2973  -30.4445 N   0  0  0  0  0  0  0  0  0  0  0  0
   44.3654   -6.2063  -30.2939 N   0  0  0  0  0  0  0  0  0  0  0  0
   45.0151   -6.8677  -31.4063 N   0  0  0  0  0  0  0  0  0  0  0  0
   44.6255   -6.2883  -32.6821 N   0  0  0  0  0  0  0  0  0  0  0  0
   44.9601   -4.9042  -32.7208 N   0  0  0  0  0  0  0  0  0  0  0  0
   46.3721   -4.7568  -32.5845 N   0  0  0  0  0  0  0  0  0  0  0  0
   47.0085   -5.4664  -33.6407 N   0  0  0  0  0  0  0  0  0  0  0  0
   46.5431   -4.9361  -34.8810 N   0  0  0  0  0  0  0  0  0  0  0  0
   46.8691   -3.5233  -34.9538 N   0  0  0  0  0  0  0  0  0  0  0  0
   48.2991   -3.3268  -34.8129 N   0  0  0  0  0  0  0  0  0  0  0  0
   48.9734   -4.0348  -35.8810 N   0  0  0  0  0  0  0  0  0  0  0  0
   48.5408   -3.4991  -37.1739 N   0  0  0  0  0  0  0  0  0  0  0  0
   48.8323   -2.0684  -37.2464 N   0  0  0  0  0  0  0  0  0  0  0  0
   50.2527   -1.8330  -37.1063 N   0  0  0  0  0  0  0  0  0  0  0  0
   50.5769   -0.2142  -37.1620 S   0  0  0  0  0  0  0  0  0  0  0  0
   52.2137   -0.0285  -37.0174 N   0  0  0  0  0  0  0  0  0  0  0  0
   52.8767   -0.5066  -35.5758 S   0  0  0  0  0  0  0  0  0  0  0  0
   52.6947   -2.1378  -35.3976 N   0  0  0  0  0  0  0  0  0  0  0  0
   53.4466   -3.1047  -36.5175 S   0  0  0  0  0  0  0  0  0  0  0  0
   55.0937   -2.8859  -36.5195 N   0  0  0  0  0  0  0  0  0  0  0  0
   55.8668   -3.3645  -35.1265 S   0  0  0  0  0  0  0  0  0  0  0  0
   55.6050   -4.9755  -34.7914 N   0  0  0  0  0  0  0  0  0  0  0  0
   56.3242   -6.0197  -35.8618 S   0  0  0  0  0  0  0  0  0  0  0  0
   56.0279   -7.5985  -35.4087 N   0  0  0  0  0  0  0  0  0  0  0  0
   56.7353   -8.0781  -33.9730 S   0  0  0  0  0  0  0  0  0  0  0  0
   56.1438   -7.2043  -32.6786 N   0  0  0  0  0  0  0  0  0  0  0  0
   54.4998   -7.3886  -32.4500 S   0  0  0  0  0  0  0  0  0  0  0  0
   53.9650   -6.4854  -31.1568 N   0  0  0  0  0  0  0  0  0  0  0  0
   54.1472   -4.8423  -31.3188 S   0  0  0  0  0  0  0  0  0  0  0  0
   21.6697  -24.0127    3.6433 H   0  0  0  0  0  0  0  0  0  0  0  0
   22.8611  -24.5975    2.6953 H   0  0  0  0  0  0  0  0  0  0  0  0
   21.9042  -22.6221    1.8425 H   0  0  0  0  0  0  0  0  0  0  0  0
   21.1929  -25.0668    0.3079 H   0  0  0  0  0  0  0  0  0  0  0  0
   22.7951  -24.3010    0.3148 H   0  0  0  0  0  0  0  0  0  0  0  0
   21.7874  -22.2018   -0.5907 H   0  0  0  0  0  0  0  0  0  0  0  0
   20.1922  -22.9684   -0.5994 H   0  0  0  0  0  0  0  0  0  0  0  0
   21.0390  -24.7357   -2.1555 H   0  0  0  0  0  0  0  0  0  0  0  0
   22.6441  -23.9584   -2.1530 H   0  0  0  0  0  0  0  0  0  0  0  0
   21.6139  -21.9916   -2.9070 H   0  0  0  0  0  0  0  0  0  0  0  0
   20.8797  -24.3108   -4.4812 H   0  0  0  0  0  0  0  0  0  0  0  0
   19.9709  -22.3547   -5.3587 H   0  0  0  0  0  0  0  0  0  0  0  0
   21.4755  -20.7882   -4.4611 H   0  0  0  0  0  0  0  0  0  0  0  0
   23.4285  -22.1200   -4.7010 H   0  0  0  0  0  0  0  0  0  0  0  0
   22.9255  -22.9973   -6.7522 H   0  0  0  0  0  0  0  0  0  0  0  0
   21.8680  -21.0761   -7.5983 H   0  0  0  0  0  0  0  0  0  0  0  0
   23.4380  -19.5360   -6.6861 H   0  0  0  0  0  0  0  0  0  0  0  0
   25.3650  -20.7650   -6.9467 H   0  0  0  0  0  0  0  0  0  0  0  0
   24.9231  -21.6746   -8.9958 H   0  0  0  0  0  0  0  0  0  0  0  0
   23.9102  -19.7934   -9.9126 H   0  0  0  0  0  0  0  0  0  0  0  0
   25.3641  -18.2321   -8.9947 H   0  0  0  0  0  0  0  0  0  0  0  0
   27.3052  -19.3722   -9.2176 H   0  0  0  0  0  0  0  0  0  0  0  0
   26.9551  -20.2705  -11.2809 H   0  0  0  0  0  0  0  0  0  0  0  0
   25.9137  -18.4882  -12.2073 H   0  0  0  0  0  0  0  0  0  0  0  0
   27.2932  -16.8432  -11.2714 H   0  0  0  0  0  0  0  0  0  0  0  0
   29.2663  -17.9755  -11.4455 H   0  0  0  0  0  0  0  0  0  0  0  0
   28.9044  -18.8953  -13.4738 H   0  0  0  0  0  0  0  0  0  0  0  0
   27.8817  -17.1658  -14.4204 H   0  0  0  0  0  0  0  0  0  0  0  0
   29.2067  -15.5225  -13.5334 H   0  0  0  0  0  0  0  0  0  0  0  0
   31.1728  -16.5579  -13.6796 H   0  0  0  0  0  0  0  0  0  0  0  0
   30.8937  -17.5279  -15.6527 H   0  0  0  0  0  0  0  0  0  0  0  0
   29.7846  -15.8120  -16.6436 H   0  0  0  0  0  0  0  0  0  0  0  0
   31.1019  -14.1031  -15.7684 H   0  0  0  0  0  0  0  0  0  0  0  0
   33.1244  -15.1534  -15.8849 H   0  0  0  0  0  0  0  0  0  0  0  0
   32.8900  -16.1555  -17.9051 H   0  0  0  0  0  0  0  0  0  0  0  0
   31.8231  -14.3643  -19.0533 H   0  0  0  0  0  0  0  0  0  0  0  0
   33.0361  -12.6304  -18.1754 H   0  0  0  0  0  0  0  0  0  0  0  0
   35.0124  -13.6467  -18.1522 H   0  0  0  0  0  0  0  0  0  0  0  0
   34.7845  -14.6987  -20.2026 H   0  0  0  0  0  0  0  0  0  0  0  0
   33.7270  -13.0430  -21.3176 H   0  0  0  0  0  0  0  0  0  0  0  0
   34.8013  -11.3004  -20.4147 H   0  0  0  0  0  0  0  0  0  0  0  0
   36.9625  -12.2473  -20.4868 H   0  0  0  0  0  0  0  0  0  0  0  0
   36.7599  -13.3436  -22.4492 H   0  0  0  0  0  0  0  0  0  0  0  0
   35.6320  -11.7285  -23.5502 H   0  0  0  0  0  0  0  0  0  0  0  0
   36.7692   -9.9639  -22.7443 H   0  0  0  0  0  0  0  0  0  0  0  0
   38.7598  -10.9077  -22.6560 H   0  0  0  0  0  0  0  0  0  0  0  0
   38.6880  -11.9977  -24.7151 H   0  0  0  0  0  0  0  0  0  0  0  0
   37.5623  -10.4312  -25.8985 H   0  0  0  0  0  0  0  0  0  0  0  0
   38.7401   -8.5303  -25.1390 H   0  0  0  0  0  0  0  0  0  0  0  0
   40.8493   -9.4111  -25.0100 H   0  0  0  0  0  0  0  0  0  0  0  0
   40.7439  -10.6179  -26.9937 H   0  0  0  0  0  0  0  0  0  0  0  0
   39.5954   -9.0838  -28.1680 H   0  0  0  0  0  0  0  0  0  0  0  0
   40.6310   -7.2320  -27.3365 H   0  0  0  0  0  0  0  0  0  0  0  0
   42.7009   -8.0767  -27.1976 H   0  0  0  0  0  0  0  0  0  0  0  0
   42.7012   -9.2359  -29.1797 H   0  0  0  0  0  0  0  0  0  0  0  0
   41.5405   -7.7889  -30.3892 H   0  0  0  0  0  0  0  0  0  0  0  0
   42.5465   -5.8967  -29.5953 H   0  0  0  0  0  0  0  0  0  0  0  0
   44.6018   -6.6766  -29.4074 H   0  0  0  0  0  0  0  0  0  0  0  0
   44.7470   -7.8474  -31.4371 H   0  0  0  0  0  0  0  0  0  0  0  0
   43.6049   -6.3780  -32.7497 H   0  0  0  0  0  0  0  0  0  0  0  0
   44.4579   -4.4755  -31.9314 H   0  0  0  0  0  0  0  0  0  0  0  0
   46.6637   -5.2032  -31.7203 H   0  0  0  0  0  0  0  0  0  0  0  0
   46.6804   -6.4341  -33.5804 H   0  0  0  0  0  0  0  0  0  0  0  0
   45.5166   -5.0755  -34.8741 H   0  0  0  0  0  0  0  0  0  0  0  0
   46.4419   -3.0900  -34.1326 H   0  0  0  0  0  0  0  0  0  0  0  0
   48.5463   -3.7768  -33.9271 H   0  0  0  0  0  0  0  0  0  0  0  0
   48.6533   -5.0083  -35.7563 H   0  0  0  0  0  0  0  0  0  0  0  0
   47.5136   -3.6338  -37.1825 H   0  0  0  0  0  0  0  0  0  0  0  0
   48.3497   -1.6121  -36.4561 H   0  0  0  0  0  0  0  0  0  0  0  0
   50.7589   -2.3431  -37.8313 H   0  0  0  0  0  0  0  0  0  0  0  0
   52.4264    0.9655  -37.1263 H   0  0  0  0  0  0  0  0  0  0  0  0
   51.6780   -2.3228  -35.3977 H   0  0  0  0  0  0  0  0  0  0  0  0
   55.2895   -1.9101  -36.7633 H   0  0  0  0  0  0  0  0  0  0  0  0
   54.6100   -5.1497  -34.6639 H   0  0  0  0  0  0  0  0  0  0  0  0
   56.3646   -8.2296  -36.1573 H   0  0  0  0  0  0  0  0  0  0  0  0
   56.3829   -6.2252  -32.8190 H   0  0  0  0  0  0  0  0  0  0  0  0
   54.3300   -6.8056  -30.2581 H   0  0  0  0  0  0  0  0  0  0  0  0
   53.4187   -4.5205  -32.4077 H   0  0  0  0  0  0  0  0  0  0  0  0
  1  2  1  0  0  0  0
  1 82  1  0  0  0  0
  1 83  1  0  0  0  0
  2  3  1  0  0  0  0
  2 84  1  0  0  0  0
  3  4  1  0  0  0  0
  3 85  1  0  0  0  0
  3 86  1  0  0  0  0
  4  5  1  0  0  0  0
  4 87  1  0  0  0  0
  4 88  1  0  0  0  0
  5  6  1  0  0  0  0
  5 89  1  0  0  0  0
  5 90  1  0  0  0  0
  6  7  1  0  0  0  0
  6 91  1  0  0  0  0
  7  8  1  0  0  0  0
  7 92  1  0  0  0  0
  8  9  1  0  0  0  0
  8 93  1  0  0  0  0
  9 10  1  0  0  0  0
  9 94  1  0  0  0  0
 10 11  1  0  0  0  0
 10 95  1  0  0  0  0
 11 12  1  0  0  0  0
 11 96  1  0  0  0  0
 12 13  1  0  0  0  0
 12 97  1  0  0  0  0
 13 14  1  0  0  0  0
 13 98  1  0  0  0  0
 14 15  1  0  0  0  0
 14 99  1  0  0  0  0
 15 16  1  0  0  0  0
 15100  1  0  0  0  0
 16 17  1  0  0  0  0
 16101  1  0  0  0  0
 17 18  1  0  0  0  0
 17102  1  0  0  0  0
 18 19  1  0  0  0  0
 18103  1  0  0  0  0
 19 20  1  0  0  0  0
 19104  1  0  0  0  0
 20 21  1  0  0  0  0
 20105  1  0  0  0  0
 21 22  1  0  0  0  0
 21106  1  0  0  0  0
 22 23  1  0  0  0  0
 22107  1  0  0  0  0
 23 24  1  0  0  0  0
 23108  1  0  0  0  0
 24 25  1  0  0  0  0
 24109  1  0  0  0  0
 25 26  1  0  0  0  0
 25110  1  0  0  0  0
 26 27  1  0  0  0  0
 26111  1  0  0  0  0
 27 28  1  0  0  0  0
 27112  1  0  0  0  0
 28 29  1  0  0  0  0
 28113  1  0  0  0  0
 29 30  1  0  0  0  0
 29114  1  0  0  0  0
 30 31  1  0  0  0  0
 30115  1  0  0  0  0
 31 32  1  0  0  0  0
 31116  1  0  0  0  0
 32 33  1  0  0  0  0
 32117  1  0  0  0  0
 33 34  1  0  0  0  0
 33118  1  0  0  0  0
 34 35  1  0  0  0  0
 34119  1  0  0  0  0
 35 36  1  0  0  0  0
 35120  1  0  0  0  0
 36 37  1  0  0  0  0
 36121  1  0  0  0  0
 37 38  1  0  0  0  0
 37122  1  0  0  0  0
 38 39  1  0  0  0  0
 38123  1  0  0  0  0
 39 40  1  0  0  0  0
 39124  1  0  0  0  0
 40 41  1  0  0  0  0
 40125  1  0  0  0  0
 41 42  1  0  0  0  0
 41126  1  0  0  0  0
 42 43  1  0  0  0  0
 42127  1  0  0  0  0
 43 44  1  0  0  0  0
 43128  1  0  0  0  0
 44 45  1  0  0  0  0
 44129  1  0  0  0  0
 45 46  1  0  0  0  0
 45130  1  0  0  0  0
 46 47  1  0  0  0  0
 46131  1  0  0  0  0
 47 48  1  0  0  0  0
 47132  1  0  0  0  0
 48 49  1  0  0  0  0
 48133  1  0  0  0  0
 49 50  1  0  0  0  0
 49134  1  0  0  0  0
 50 51  1  0  0  0  0
 50135  1  0  0  0  0
 51 52  1  0  0  0  0
 51136  1  0  0  0  0
 52 53  1  0  0  0  0
 52137  1  0  0  0  0
 53 54  1  0  0  0  0
 53138  1  0  0  0  0
 54 55  1  0  0  0  0
 54139  1  0  0  0  0
 55 56  1  0  0  0  0
 55140  1  0  0  0  0
 56 57  1  0  0  0  0
 56141  1  0  0  0  0
 57 58  1  0  0  0  0
 57142  1  0  0  0  0
 58 59  1  0  0  0  0
 58143  1  0  0  0  0
 59 60  1  0  0  0  0
 59144  1  0  0  0  0
 60 61  1  0  0  0  0
 60145  1  0  0  0  0
 61 62  1  0  0  0  0
 61146  1  0  0  0  0
 62 63  1  0  0  0  0
 62147  1  0  0  0  0
 63 64  1  0  0  0  0
 63148  1  0  0  0  0
 64 65  1  0  0  0  0
 64149  1  0  0  0  0
 65 66  1  0  0  0  0
 65150  1  0  0  0  0
 66 67  1  0  0  0  0
 66151  1  0  0  0  0
 67 68  1  0  0  0  0
 68 69  1  0  0  0  0
 68152  1  0  0  0  0
 69 70  1  0  0  0  0
 70 71  1  0  0  0  0
 70153  1  0  0  0  0
 71 72  1  0  0  0  0
 72 73  1  0  0  0  0
 72154  1  0  0  0  0
 73 74  1  0  0  0  0
 74 75  1  0  0  0  0
 74155  1  0  0  0  0
 75 76  1  0  0  0  0
 76 77  1  0  0  0  0
 76156  1  0  0  0  0
 77 78  1  0  0  0  0
 78 79  1  0  0  0  0
 78157  1  0  0  0  0
 79 80  1  0  0  0  0
 80 81  1  0  0  0  0
 80158  1  0  0  0  0
 81159  1  0  0  0  0
M  END
$$$$
