
 OpenBabel04232216413D

214213  0  0  0  0  0  0  0  0999 V2000
    1.5774   -0.8685    0.5095 C   0  0  0  0  0  0  0  0  0  0  0  0
    2.4395   -0.0074   -0.0526 C   0  0  0  0  0  0  0  0  0  0  0  0
    3.2159   -0.3330   -1.2883 C   0  0  0  0  0  0  0  0  0  0  0  0
    4.6515   -0.2559   -1.0209 N   0  0  0  0  0  0  0  0  0  0  0  0
    5.3461   -0.5772   -2.2193 N   0  0  0  0  0  0  0  0  0  0  0  0
    6.7567   -0.5126   -1.9893 N   0  0  0  0  0  0  0  0  0  0  0  0
    7.4605   -0.8246   -3.1659 N   0  0  0  0  0  0  0  0  0  0  0  0
    8.8598   -0.7565   -2.9218 N   0  0  0  0  0  0  0  0  0  0  0  0
    9.5787   -1.0690   -4.0964 N   0  0  0  0  0  0  0  0  0  0  0  0
   10.9646   -1.0002   -3.8494 N   0  0  0  0  0  0  0  0  0  0  0  0
   11.6642   -1.3146   -5.0264 N   0  0  0  0  0  0  0  0  0  0  0  0
   13.0589   -1.2495   -4.7899 N   0  0  0  0  0  0  0  0  0  0  0  0
   13.7628   -1.5628   -5.9735 N   0  0  0  0  0  0  0  0  0  0  0  0
   15.1622   -1.4946   -5.7369 N   0  0  0  0  0  0  0  0  0  0  0  0
   15.8908   -1.8094   -6.9159 N   0  0  0  0  0  0  0  0  0  0  0  0
   17.2744   -1.7400   -6.6642 N   0  0  0  0  0  0  0  0  0  0  0  0
   17.9977   -2.0523   -7.8486 N   0  0  0  0  0  0  0  0  0  0  0  0
   19.3843   -1.9869   -7.5982 N   0  0  0  0  0  0  0  0  0  0  0  0
   20.1002   -2.2976   -8.7882 N   0  0  0  0  0  0  0  0  0  0  0  0
   21.5005   -2.2320   -8.5530 N   0  0  0  0  0  0  0  0  0  0  0  0
   22.2221   -2.5448   -9.7354 N   0  0  0  0  0  0  0  0  0  0  0  0
   23.6075   -2.4787   -9.4861 N   0  0  0  0  0  0  0  0  0  0  0  0
   24.3181   -2.7921  -10.6694 N   0  0  0  0  0  0  0  0  0  0  0  0
   25.7104   -2.7263  -10.4309 N   0  0  0  0  0  0  0  0  0  0  0  0
   26.4285   -3.0402  -11.6109 N   0  0  0  0  0  0  0  0  0  0  0  0
   27.8151   -2.9739  -11.3653 N   0  0  0  0  0  0  0  0  0  0  0  0
   28.5239   -3.2873  -12.5447 N   0  0  0  0  0  0  0  0  0  0  0  0
   29.9069   -3.2221  -12.2984 N   0  0  0  0  0  0  0  0  0  0  0  0
   30.6261   -3.5407  -13.4987 N   0  0  0  0  0  0  0  0  0  0  0  0
   32.0532   -3.4654  -13.2185 C   0  0  0  0  0  0  0  0  0  0  0  0
   32.8240   -3.8026  -14.4889 C   0  0  0  0  0  0  0  0  0  0  0  0
   34.3209   -3.7341  -14.2318 C   0  0  0  0  0  0  0  0  0  0  0  0
   35.0874   -4.0681  -15.4982 C   0  0  0  0  0  0  0  0  0  0  0  0
   36.5797   -3.9986  -15.2375 C   0  0  0  0  0  0  0  0  0  0  0  0
   37.3437   -4.3325  -16.5036 C   0  0  0  0  0  0  0  0  0  0  0  0
   38.8350   -4.2628  -16.2423 C   0  0  0  0  0  0  0  0  0  0  0  0
   39.5984   -4.5947  -17.5087 C   0  0  0  0  0  0  0  0  0  0  0  0
   41.0895   -4.5230  -17.2478 C   0  0  0  0  0  0  0  0  0  0  0  0
   41.8528   -4.8530  -18.5147 C   0  0  0  0  0  0  0  0  0  0  0  0
   43.3439   -4.7833  -18.2532 C   0  0  0  0  0  0  0  0  0  0  0  0
   44.1073   -5.1113  -19.5206 C   0  0  0  0  0  0  0  0  0  0  0  0
   45.5983   -5.0435  -19.2587 C   0  0  0  0  0  0  0  0  0  0  0  0
   46.3617   -5.3715  -20.5261 C   0  0  0  0  0  0  0  0  0  0  0  0
   47.8528   -5.3037  -20.2642 C   0  0  0  0  0  0  0  0  0  0  0  0
   48.6161   -5.6318  -21.5316 C   0  0  0  0  0  0  0  0  0  0  0  0
   50.1072   -5.5640  -21.2697 C   0  0  0  0  0  0  0  0  0  0  0  0
   50.8705   -5.8920  -22.5371 C   0  0  0  0  0  0  0  0  0  0  0  0
   52.3616   -5.8262  -22.2746 C   0  0  0  0  0  0  0  0  0  0  0  0
   53.1249   -6.1562  -23.5415 C   0  0  0  0  0  0  0  0  0  0  0  0
   54.6160   -6.0884  -23.2796 C   0  0  0  0  0  0  0  0  0  0  0  0
   55.3793   -6.4184  -24.5465 C   0  0  0  0  0  0  0  0  0  0  0  0
   56.8704   -6.3525  -24.2841 C   0  0  0  0  0  0  0  0  0  0  0  0
   57.6337   -6.6806  -25.5515 C   0  0  0  0  0  0  0  0  0  0  0  0
   59.1248   -6.6167  -25.2885 C   0  0  0  0  0  0  0  0  0  0  0  0
   59.8881   -6.9466  -26.5554 C   0  0  0  0  0  0  0  0  0  0  0  0
   61.3792   -6.8847  -26.2920 C   0  0  0  0  0  0  0  0  0  0  0  0
   62.1425   -7.2128  -27.5594 C   0  0  0  0  0  0  0  0  0  0  0  0
   63.6336   -7.1508  -27.2959 C   0  0  0  0  0  0  0  0  0  0  0  0
   64.3969   -7.4808  -28.5628 C   0  0  0  0  0  0  0  0  0  0  0  0
   65.8880   -7.4188  -28.2994 C   0  0  0  0  0  0  0  0  0  0  0  0
   66.6513   -7.7488  -29.5663 C   0  0  0  0  0  0  0  0  0  0  0  0
   68.1423   -7.6869  -29.3029 C   0  0  0  0  0  0  0  0  0  0  0  0
   68.9057   -8.0169  -30.5697 C   0  0  0  0  0  0  0  0  0  0  0  0
   70.3967   -7.9549  -30.3063 C   0  0  0  0  0  0  0  0  0  0  0  0
   71.1600   -8.2849  -31.5732 C   0  0  0  0  0  0  0  0  0  0  0  0
   72.6511   -8.2230  -31.3098 C   0  0  0  0  0  0  0  0  0  0  0  0
   73.4144   -8.5530  -32.5767 C   0  0  0  0  0  0  0  0  0  0  0  0
   74.9055   -8.4910  -32.3132 C   0  0  0  0  0  0  0  0  0  0  0  0
   75.6688   -8.8191  -33.5806 C   0  0  0  0  0  0  0  0  0  0  0  0
   77.1599   -8.7571  -33.3172 C   0  0  0  0  0  0  0  0  0  0  0  0
   77.9232   -9.0851  -34.5846 C   0  0  0  0  0  0  0  0  0  0  0  0
   79.4143   -9.0232  -34.3211 C   0  0  0  0  0  0  0  0  0  0  0  0
   80.1776   -9.3512  -35.5885 C   0  0  0  0  0  0  0  0  0  0  0  0
   81.6687   -9.2893  -35.3251 C   0  0  0  0  0  0  0  0  0  0  0  0
   82.4320   -9.6193  -36.5920 C   0  0  0  0  0  0  0  0  0  0  0  0
   83.9232   -9.5574  -36.3287 C   0  0  0  0  0  0  0  0  0  0  0  0
   84.6866   -9.8875  -37.5961 C   0  0  0  0  0  0  0  0  0  0  0  0
   86.1784   -9.8278  -37.3334 C   0  0  0  0  0  0  0  0  0  0  0  0
   86.9462  -10.1560  -38.6011 C   0  0  0  0  0  0  0  0  0  0  0  0
   88.4336  -10.0953  -38.3346 C   0  0  0  0  0  0  0  0  0  0  0  0
    1.0308   -0.6072    1.4042 H   0  0  0  0  0  0  0  0  0  0  0  0
    1.4281   -1.8520    0.0760 H   0  0  0  0  0  0  0  0  0  0  0  0
    2.5614    0.9703    0.4105 H   0  0  0  0  0  0  0  0  0  0  0  0
    2.9403    0.3829   -2.0739 H   0  0  0  0  0  0  0  0  0  0  0  0
    2.9405   -1.3407   -1.6273 H   0  0  0  0  0  0  0  0  0  0  0  0
    4.8858   -0.9415   -0.3000 H   0  0  0  0  0  0  0  0  0  0  0  0
    5.1142    0.0936   -2.9542 H   0  0  0  0  0  0  0  0  0  0  0  0
    6.9997   -1.1754   -1.2567 H   0  0  0  0  0  0  0  0  0  0  0  0
    7.1726   -0.1500   -3.8773 H   0  0  0  0  0  0  0  0  0  0  0  0
    9.1075   -1.4267   -2.1884 H   0  0  0  0  0  0  0  0  0  0  0  0
    9.3436   -0.4055   -4.8311 H   0  0  0  0  0  0  0  0  0  0  0  0
   11.2101   -1.6716   -3.1239 H   0  0  0  0  0  0  0  0  0  0  0  0
   11.4147   -0.6415   -5.7476 H   0  0  0  0  0  0  0  0  0  0  0  0
   13.3022   -1.9176   -4.0625 H   0  0  0  0  0  0  0  0  0  0  0  0
   13.4584   -0.8901   -6.6824 H   0  0  0  0  0  0  0  0  0  0  0  0
   15.4215   -2.1677   -5.0092 H   0  0  0  0  0  0  0  0  0  0  0  0
   15.6807   -1.1372   -7.6519 H   0  0  0  0  0  0  0  0  0  0  0  0
   17.5355   -2.4182   -5.9498 H   0  0  0  0  0  0  0  0  0  0  0  0
   17.7795   -1.3896   -8.5881 H   0  0  0  0  0  0  0  0  0  0  0  0
   19.5905   -2.6449   -6.8438 H   0  0  0  0  0  0  0  0  0  0  0  0
   19.8117   -1.6390   -9.5210 H   0  0  0  0  0  0  0  0  0  0  0  0
   21.7531   -2.8959   -7.8113 H   0  0  0  0  0  0  0  0  0  0  0  0
   21.9914   -1.8831  -10.4790 H   0  0  0  0  0  0  0  0  0  0  0  0
   23.8820   -3.1564   -8.7772 H   0  0  0  0  0  0  0  0  0  0  0  0
   24.0627   -2.1202  -11.3880 H   0  0  0  0  0  0  0  0  0  0  0  0
   25.9504   -3.4010   -9.7071 H   0  0  0  0  0  0  0  0  0  0  0  0
   26.1882   -2.3617  -12.3305 H   0  0  0  0  0  0  0  0  0  0  0  0
   28.0671   -3.6517  -10.6500 H   0  0  0  0  0  0  0  0  0  0  0  0
   28.2776   -2.6156  -13.2692 H   0  0  0  0  0  0  0  0  0  0  0  0
   30.1522   -3.8931  -11.5711 H   0  0  0  0  0  0  0  0  0  0  0  0
   30.3781   -2.8568  -14.2128 H   0  0  0  0  0  0  0  0  0  0  0  0
   32.3308   -4.1831  -12.4369 H   0  0  0  0  0  0  0  0  0  0  0  0
   32.3364   -2.4602  -12.8838 H   0  0  0  0  0  0  0  0  0  0  0  0
   32.5617   -3.0978  -15.2877 H   0  0  0  0  0  0  0  0  0  0  0  0
   32.5616   -4.8110  -14.8329 H   0  0  0  0  0  0  0  0  0  0  0  0
   34.5951   -4.4409  -13.4396 H   0  0  0  0  0  0  0  0  0  0  0  0
   34.5939   -2.7279  -13.8921 H   0  0  0  0  0  0  0  0  0  0  0  0
   34.8183   -3.3615  -16.2923 H   0  0  0  0  0  0  0  0  0  0  0  0
   34.8191   -5.0748  -15.8399 H   0  0  0  0  0  0  0  0  0  0  0  0
   36.8511   -4.7053  -14.4444 H   0  0  0  0  0  0  0  0  0  0  0  0
   36.8503   -2.9921  -14.8968 H   0  0  0  0  0  0  0  0  0  0  0  0
   37.0733   -3.6258  -17.2970 H   0  0  0  0  0  0  0  0  0  0  0  0
   37.0741   -5.3390  -16.8447 H   0  0  0  0  0  0  0  0  0  0  0  0
   39.1060   -4.9705  -15.4499 H   0  0  0  0  0  0  0  0  0  0  0  0
   39.1047   -3.2566  -15.8999 H   0  0  0  0  0  0  0  0  0  0  0  0
   39.3265   -3.8878  -18.3015 H   0  0  0  0  0  0  0  0  0  0  0  0
   39.3299   -5.6014  -17.8502 H   0  0  0  0  0  0  0  0  0  0  0  0
   41.3617   -5.2309  -16.4560 H   0  0  0  0  0  0  0  0  0  0  0  0
   41.3579   -3.5167  -16.9048 H   0  0  0  0  0  0  0  0  0  0  0  0
   41.5817   -4.1442  -19.3060 H   0  0  0  0  0  0  0  0  0  0  0  0
   41.5835   -5.8587  -18.8584 H   0  0  0  0  0  0  0  0  0  0  0  0
   43.6153   -5.4931  -17.4629 H   0  0  0  0  0  0  0  0  0  0  0  0
   43.6131   -3.7780  -17.9081 H   0  0  0  0  0  0  0  0  0  0  0  0
   43.8370   -4.4006  -20.3106 H   0  0  0  0  0  0  0  0  0  0  0  0
   43.8370   -6.1160  -19.8666 H   0  0  0  0  0  0  0  0  0  0  0  0
   45.8686   -5.7542  -18.4688 H   0  0  0  0  0  0  0  0  0  0  0  0
   45.8686   -4.0388  -18.9128 H   0  0  0  0  0  0  0  0  0  0  0  0
   46.0914   -4.6608  -21.3160 H   0  0  0  0  0  0  0  0  0  0  0  0
   46.0914   -6.3763  -20.8720 H   0  0  0  0  0  0  0  0  0  0  0  0
   48.1230   -6.0145  -19.4742 H   0  0  0  0  0  0  0  0  0  0  0  0
   48.1230   -4.2990  -19.9183 H   0  0  0  0  0  0  0  0  0  0  0  0
   48.3458   -4.9211  -22.3215 H   0  0  0  0  0  0  0  0  0  0  0  0
   48.3458   -6.6365  -21.8775 H   0  0  0  0  0  0  0  0  0  0  0  0
   50.3774   -6.2747  -20.4797 H   0  0  0  0  0  0  0  0  0  0  0  0
   50.3774   -4.5593  -20.9237 H   0  0  0  0  0  0  0  0  0  0  0  0
   50.6013   -5.1804  -23.3266 H   0  0  0  0  0  0  0  0  0  0  0  0
   50.5991   -6.8962  -22.8838 H   0  0  0  0  0  0  0  0  0  0  0  0
   52.6305   -6.5368  -21.4841 H   0  0  0  0  0  0  0  0  0  0  0  0
   52.6331   -4.8216  -21.9293 H   0  0  0  0  0  0  0  0  0  0  0  0
   52.8548   -5.4465  -24.3325 H   0  0  0  0  0  0  0  0  0  0  0  0
   52.8544   -7.1613  -23.8861 H   0  0  0  0  0  0  0  0  0  0  0  0
   54.8860   -6.7981  -22.4886 H   0  0  0  0  0  0  0  0  0  0  0  0
   54.8865   -5.0832  -22.9350 H   0  0  0  0  0  0  0  0  0  0  0  0
   55.1103   -5.7078  -25.3370 H   0  0  0  0  0  0  0  0  0  0  0  0
   55.1077   -7.4229  -24.8918 H   0  0  0  0  0  0  0  0  0  0  0  0
   57.1395   -7.0641  -23.4945 H   0  0  0  0  0  0  0  0  0  0  0  0
   57.1417   -5.3484  -23.9373 H   0  0  0  0  0  0  0  0  0  0  0  0
   57.3656   -5.9681  -26.3405 H   0  0  0  0  0  0  0  0  0  0  0  0
   57.3613   -7.6842  -25.8990 H   0  0  0  0  0  0  0  0  0  0  0  0
   59.3927   -7.3281  -24.4984 H   0  0  0  0  0  0  0  0  0  0  0  0
   59.3974   -5.6127  -24.9424 H   0  0  0  0  0  0  0  0  0  0  0  0
   59.6213   -6.2343  -27.3451 H   0  0  0  0  0  0  0  0  0  0  0  0
   59.6144   -7.9501  -26.9024 H   0  0  0  0  0  0  0  0  0  0  0  0
   61.6462   -7.5981  -25.5033 H   0  0  0  0  0  0  0  0  0  0  0  0
   61.6527   -5.8817  -25.9437 H   0  0  0  0  0  0  0  0  0  0  0  0
   61.8755   -6.4994  -28.3480 H   0  0  0  0  0  0  0  0  0  0  0  0
   61.8690   -8.2158  -27.9077 H   0  0  0  0  0  0  0  0  0  0  0  0
   63.9004   -7.8632  -26.5063 H   0  0  0  0  0  0  0  0  0  0  0  0
   63.9073   -6.1474  -26.9490 H   0  0  0  0  0  0  0  0  0  0  0  0
   64.1301   -6.7684  -29.3525 H   0  0  0  0  0  0  0  0  0  0  0  0
   64.1231   -8.4842  -28.9098 H   0  0  0  0  0  0  0  0  0  0  0  0
   66.1547   -8.1312  -27.5097 H   0  0  0  0  0  0  0  0  0  0  0  0
   66.1617   -6.4154  -27.9525 H   0  0  0  0  0  0  0  0  0  0  0  0
   66.3845   -7.0365  -30.3560 H   0  0  0  0  0  0  0  0  0  0  0  0
   66.3775   -8.7523  -29.9132 H   0  0  0  0  0  0  0  0  0  0  0  0
   68.4091   -8.3992  -28.5132 H   0  0  0  0  0  0  0  0  0  0  0  0
   68.4161   -6.6835  -28.9559 H   0  0  0  0  0  0  0  0  0  0  0  0
   68.6389   -7.3045  -31.3594 H   0  0  0  0  0  0  0  0  0  0  0  0
   68.6319   -9.0203  -30.9167 H   0  0  0  0  0  0  0  0  0  0  0  0
   70.6635   -8.6673  -29.5166 H   0  0  0  0  0  0  0  0  0  0  0  0
   70.6705   -6.9515  -29.9594 H   0  0  0  0  0  0  0  0  0  0  0  0
   70.8933   -7.5726  -32.3629 H   0  0  0  0  0  0  0  0  0  0  0  0
   70.8863   -9.2884  -31.9201 H   0  0  0  0  0  0  0  0  0  0  0  0
   72.9179   -8.9353  -30.5201 H   0  0  0  0  0  0  0  0  0  0  0  0
   72.9249   -7.2195  -30.9628 H   0  0  0  0  0  0  0  0  0  0  0  0
   73.1476   -7.8406  -33.3663 H   0  0  0  0  0  0  0  0  0  0  0  0
   73.1407   -9.5564  -32.9236 H   0  0  0  0  0  0  0  0  0  0  0  0
   75.1725   -9.2044  -31.5246 H   0  0  0  0  0  0  0  0  0  0  0  0
   75.1790   -7.4880  -31.9649 H   0  0  0  0  0  0  0  0  0  0  0  0
   75.4018   -8.1057  -34.3693 H   0  0  0  0  0  0  0  0  0  0  0  0
   75.3953   -9.8221  -33.9289 H   0  0  0  0  0  0  0  0  0  0  0  0
   77.4269   -9.4705  -32.5285 H   0  0  0  0  0  0  0  0  0  0  0  0
   77.4334   -7.7541  -32.9689 H   0  0  0  0  0  0  0  0  0  0  0  0
   77.6562   -8.3718  -35.3732 H   0  0  0  0  0  0  0  0  0  0  0  0
   77.6497  -10.0882  -34.9329 H   0  0  0  0  0  0  0  0  0  0  0  0
   79.6813   -9.7366  -33.5325 H   0  0  0  0  0  0  0  0  0  0  0  0
   79.6878   -8.0202  -33.9728 H   0  0  0  0  0  0  0  0  0  0  0  0
   79.9106   -8.6379  -36.3772 H   0  0  0  0  0  0  0  0  0  0  0  0
   79.9041  -10.3543  -35.9369 H   0  0  0  0  0  0  0  0  0  0  0  0
   81.9355  -10.0016  -34.5354 H   0  0  0  0  0  0  0  0  0  0  0  0
   81.9424   -8.2859  -34.9782 H   0  0  0  0  0  0  0  0  0  0  0  0
   82.1652   -8.9069  -37.3817 H   0  0  0  0  0  0  0  0  0  0  0  0
   82.1583  -10.6227  -36.9389 H   0  0  0  0  0  0  0  0  0  0  0  0
   84.1899  -10.2697  -35.5390 H   0  0  0  0  0  0  0  0  0  0  0  0
   84.1969   -8.5539  -35.9817 H   0  0  0  0  0  0  0  0  0  0  0  0
   84.4206   -9.1741  -38.3849 H   0  0  0  0  0  0  0  0  0  0  0  0
   84.4115  -10.8903  -37.9434 H   0  0  0  0  0  0  0  0  0  0  0  0
   86.4433  -10.5415  -36.5439 H   0  0  0  0  0  0  0  0  0  0  0  0
   86.4519   -8.8253  -36.9829 H   0  0  0  0  0  0  0  0  0  0  0  0
   86.6836   -9.4416  -39.3894 H   0  0  0  0  0  0  0  0  0  0  0  0
   86.6749  -11.1586  -38.9502 H   0  0  0  0  0  0  0  0  0  0  0  0
   88.7196   -9.0936  -37.9987 H   0  0  0  0  0  0  0  0  0  0  0  0
   88.9887  -10.3310  -39.2453 H   0  0  0  0  0  0  0  0  0  0  0  0
   88.7110  -10.8153  -37.5583 H   0  0  0  0  0  0  0  0  0  0  0  0
  1  2  2  0  0  0  0
  1 81  1  0  0  0  0
  1 82  1  0  0  0  0
  2  3  1  0  0  0  0
  2 83  1  0  0  0  0
  3  4  1  0  0  0  0
  3 84  1  0  0  0  0
  3 85  1  0  0  0  0
  4  5  1  0  0  0  0
  4 86  1  0  0  0  0
  5  6  1  0  0  0  0
  5 87  1  0  0  0  0
  6  7  1  0  0  0  0
  6 88  1  0  0  0  0
  7  8  1  0  0  0  0
  7 89  1  0  0  0  0
  8  9  1  0  0  0  0
  8 90  1  0  0  0  0
  9 10  1  0  0  0  0
  9 91  1  0  0  0  0
 10 11  1  0  0  0  0
 10 92  1  0  0  0  0
 11 12  1  0  0  0  0
 11 93  1  0  0  0  0
 12 13  1  0  0  0  0
 12 94  1  0  0  0  0
 13 14  1  0  0  0  0
 13 95  1  0  0  0  0
 14 15  1  0  0  0  0
 14 96  1  0  0  0  0
 15 16  1  0  0  0  0
 15 97  1  0  0  0  0
 16 17  1  0  0  0  0
 16 98  1  0  0  0  0
 17 18  1  0  0  0  0
 17 99  1  0  0  0  0
 18 19  1  0  0  0  0
 18100  1  0  0  0  0
 19 20  1  0  0  0  0
 19101  1  0  0  0  0
 20 21  1  0  0  0  0
 20102  1  0  0  0  0
 21 22  1  0  0  0  0
 21103  1  0  0  0  0
 22 23  1  0  0  0  0
 22104  1  0  0  0  0
 23 24  1  0  0  0  0
 23105  1  0  0  0  0
 24 25  1  0  0  0  0
 24106  1  0  0  0  0
 25 26  1  0  0  0  0
 25107  1  0  0  0  0
 26 27  1  0  0  0  0
 26108  1  0  0  0  0
 27 28  1  0  0  0  0
 27109  1  0  0  0  0
 28 29  1  0  0  0  0
 28110  1  0  0  0  0
 29 30  1  0  0  0  0
 29111  1  0  0  0  0
 30 31  1  0  0  0  0
 30112  1  0  0  0  0
 30113  1  0  0  0  0
 31 32  1  0  0  0  0
 31114  1  0  0  0  0
 31115  1  0  0  0  0
 32 33  1  0  0  0  0
 32116  1  0  0  0  0
 32117  1  0  0  0  0
 33 34  1  0  0  0  0
 33118  1  0  0  0  0
 33119  1  0  0  0  0
 34 35  1  0  0  0  0
 34120  1  0  0  0  0
 34121  1  0  0  0  0
 35 36  1  0  0  0  0
 35122  1  0  0  0  0
 35123  1  0  0  0  0
 36 37  1  0  0  0  0
 36124  1  0  0  0  0
 36125  1  0  0  0  0
 37 38  1  0  0  0  0
 37126  1  0  0  0  0
 37127  1  0  0  0  0
 38 39  1  0  0  0  0
 38128  1  0  0  0  0
 38129  1  0  0  0  0
 39 40  1  0  0  0  0
 39130  1  0  0  0  0
 39131  1  0  0  0  0
 40 41  1  0  0  0  0
 40132  1  0  0  0  0
 40133  1  0  0  0  0
 41 42  1  0  0  0  0
 41134  1  0  0  0  0
 41135  1  0  0  0  0
 42 43  1  0  0  0  0
 42136  1  0  0  0  0
 42137  1  0  0  0  0
 43 44  1  0  0  0  0
 43138  1  0  0  0  0
 43139  1  0  0  0  0
 44 45  1  0  0  0  0
 44140  1  0  0  0  0
 44141  1  0  0  0  0
 45 46  1  0  0  0  0
 45142  1  0  0  0  0
 45143  1  0  0  0  0
 46 47  1  0  0  0  0
 46144  1  0  0  0  0
 46145  1  0  0  0  0
 47 48  1  0  0  0  0
 47146  1  0  0  0  0
 47147  1  0  0  0  0
 48 49  1  0  0  0  0
 48148  1  0  0  0  0
 48149  1  0  0  0  0
 49 50  1  0  0  0  0
 49150  1  0  0  0  0
 49151  1  0  0  0  0
 50 51  1  0  0  0  0
 50152  1  0  0  0  0
 50153  1  0  0  0  0
 51 52  1  0  0  0  0
 51154  1  0  0  0  0
 51155  1  0  0  0  0
 52 53  1  0  0  0  0
 52156  1  0  0  0  0
 52157  1  0  0  0  0
 53 54  1  0  0  0  0
 53158  1  0  0  0  0
 53159  1  0  0  0  0
 54 55  1  0  0  0  0
 54160  1  0  0  0  0
 54161  1  0  0  0  0
 55 56  1  0  0  0  0
 55162  1  0  0  0  0
 55163  1  0  0  0  0
 56 57  1  0  0  0  0
 56164  1  0  0  0  0
 56165  1  0  0  0  0
 57 58  1  0  0  0  0
 57166  1  0  0  0  0
 57167  1  0  0  0  0
 58 59  1  0  0  0  0
 58168  1  0  0  0  0
 58169  1  0  0  0  0
 59 60  1  0  0  0  0
 59170  1  0  0  0  0
 59171  1  0  0  0  0
 60 61  1  0  0  0  0
 60172  1  0  0  0  0
 60173  1  0  0  0  0
 61 62  1  0  0  0  0
 61174  1  0  0  0  0
 61175  1  0  0  0  0
 62 63  1  0  0  0  0
 62176  1  0  0  0  0
 62177  1  0  0  0  0
 63 64  1  0  0  0  0
 63178  1  0  0  0  0
 63179  1  0  0  0  0
 64 65  1  0  0  0  0
 64180  1  0  0  0  0
 64181  1  0  0  0  0
 65 66  1  0  0  0  0
 65182  1  0  0  0  0
 65183  1  0  0  0  0
 66 67  1  0  0  0  0
 66184  1  0  0  0  0
 66185  1  0  0  0  0
 67 68  1  0  0  0  0
 67186  1  0  0  0  0
 67187  1  0  0  0  0
 68 69  1  0  0  0  0
 68188  1  0  0  0  0
 68189  1  0  0  0  0
 69 70  1  0  0  0  0
 69190  1  0  0  0  0
 69191  1  0  0  0  0
 70 71  1  0  0  0  0
 70192  1  0  0  0  0
 70193  1  0  0  0  0
 71 72  1  0  0  0  0
 71194  1  0  0  0  0
 71195  1  0  0  0  0
 72 73  1  0  0  0  0
 72196  1  0  0  0  0
 72197  1  0  0  0  0
 73 74  1  0  0  0  0
 73198  1  0  0  0  0
 73199  1  0  0  0  0
 74 75  1  0  0  0  0
 74200  1  0  0  0  0
 74201  1  0  0  0  0
 75 76  1  0  0  0  0
 75202  1  0  0  0  0
 75203  1  0  0  0  0
 76 77  1  0  0  0  0
 76204  1  0  0  0  0
 76205  1  0  0  0  0
 77 78  1  0  0  0  0
 77206  1  0  0  0  0
 77207  1  0  0  0  0
 78 79  1  0  0  0  0
 78208  1  0  0  0  0
 78209  1  0  0  0  0
 79 80  1  0  0  0  0
 79210  1  0  0  0  0
 79211  1  0  0  0  0
 80212  1  0  0  0  0
 80213  1  0  0  0  0
 80214  1  0  0  0  0
M  END
$$$$
