
 OpenBabel04232217023D

100 99  0  0  0  0  0  0  0  0999 V2000
    8.3710  -14.4624    0.7520 S   0  0  0  0  0  0  0  0  0  0  0  0
   10.1816  -14.5233    0.9288 C   0  0  0  0  0  0  0  0  0  0  0  0
   10.9586  -12.8587    0.9061 S   0  0  0  0  0  0  0  0  0  0  0  0
   10.1908  -11.8116    2.4989 S   0  0  0  0  0  0  0  0  0  0  0  0
   10.7406  -12.8207    4.2044 S   0  0  0  0  0  0  0  0  0  0  0  0
   12.4023  -12.7651    4.1529 N   0  0  0  0  0  0  0  0  0  0  0  0
   12.9379  -13.4837    5.2886 N   0  0  0  0  0  0  0  0  0  0  0  0
   14.3572  -13.4635    5.2849 N   0  0  0  0  0  0  0  0  0  0  0  0
   14.7997  -14.1970    6.4249 N   0  0  0  0  0  0  0  0  0  0  0  0
   16.2295  -14.2141    6.4481 N   0  0  0  0  0  0  0  0  0  0  0  0
   16.7005  -14.9186    7.6017 N   0  0  0  0  0  0  0  0  0  0  0  0
   18.1451  -14.9540    7.6279 N   0  0  0  0  0  0  0  0  0  0  0  0
   18.6589  -15.6539    8.7751 N   0  0  0  0  0  0  0  0  0  0  0  0
   20.0910  -15.6467    8.7867 N   0  0  0  0  0  0  0  0  0  0  0  0
   20.5981  -14.3299    8.8366 N   0  0  0  0  0  0  0  0  0  0  0  0
   21.9983  -14.3752    8.8434 N   0  0  0  0  0  0  0  0  0  0  0  0
   22.5091  -13.0699    8.8774 N   0  0  0  0  0  0  0  0  0  0  0  0
   23.9238  -13.0710    8.9260 N   0  0  0  0  0  0  0  0  0  0  0  0
   24.4432  -11.7337    8.9665 N   0  0  0  0  0  0  0  0  0  0  0  0
   23.9926  -10.9969   10.1340 N   0  0  0  0  0  0  0  0  0  0  0  0
   24.6546   -9.4745   10.1341 S   0  0  0  0  0  0  0  0  0  0  0  0
   23.9197   -8.6558   11.8733 S   0  0  0  0  0  0  0  0  0  0  0  0
   24.6279   -9.7615   13.4737 S   0  0  0  0  0  0  0  0  0  0  0  0
   26.7040   -9.7116   13.5046 S   0  0  0  0  0  0  0  0  0  0  0  0
   27.3728  -10.8879   15.1174 S   0  0  0  0  0  0  0  0  0  0  0  0
   29.4830  -10.8839   15.1123 S   0  0  0  0  0  0  0  0  0  0  0  0
   30.1744  -12.0414   16.7354 S   0  0  0  0  0  0  0  0  0  0  0  0
   32.2850  -12.0340   16.7248 S   0  0  0  0  0  0  0  0  0  0  0  0
   32.9764  -13.1917   18.3476 S   0  0  0  0  0  0  0  0  0  0  0  0
   35.0860  -13.1841   18.3369 S   0  0  0  0  0  0  0  0  0  0  0  0
   35.7767  -14.3417   19.9596 S   0  0  0  0  0  0  0  0  0  0  0  0
   37.8861  -14.3341   19.9488 S   0  0  0  0  0  0  0  0  0  0  0  0
   38.5767  -15.4916   21.5714 S   0  0  0  0  0  0  0  0  0  0  0  0
   40.6861  -15.4839   21.5606 S   0  0  0  0  0  0  0  0  0  0  0  0
   41.3767  -16.6415   23.1831 S   0  0  0  0  0  0  0  0  0  0  0  0
   43.4861  -16.6338   23.1723 S   0  0  0  0  0  0  0  0  0  0  0  0
   44.1767  -17.7914   24.7949 S   0  0  0  0  0  0  0  0  0  0  0  0
   46.2861  -17.7837   24.7841 S   0  0  0  0  0  0  0  0  0  0  0  0
   46.9767  -18.9413   26.4067 S   0  0  0  0  0  0  0  0  0  0  0  0
   49.0861  -18.9336   26.3959 S   0  0  0  0  0  0  0  0  0  0  0  0
   49.7767  -20.0911   28.0184 S   0  0  0  0  0  0  0  0  0  0  0  0
   51.8861  -20.0834   28.0076 S   0  0  0  0  0  0  0  0  0  0  0  0
   52.5767  -21.2410   29.6302 S   0  0  0  0  0  0  0  0  0  0  0  0
   54.6861  -21.2333   29.6194 S   0  0  0  0  0  0  0  0  0  0  0  0
   55.3767  -22.3909   31.2420 S   0  0  0  0  0  0  0  0  0  0  0  0
   57.4861  -22.3832   31.2312 S   0  0  0  0  0  0  0  0  0  0  0  0
   58.1767  -23.5408   32.8537 S   0  0  0  0  0  0  0  0  0  0  0  0
   60.2861  -23.5331   32.8430 S   0  0  0  0  0  0  0  0  0  0  0  0
   60.9767  -24.6906   34.4655 S   0  0  0  0  0  0  0  0  0  0  0  0
   63.0861  -24.6829   34.4547 S   0  0  0  0  0  0  0  0  0  0  0  0
   63.7767  -25.8405   36.0773 S   0  0  0  0  0  0  0  0  0  0  0  0
   65.8861  -25.8328   36.0665 S   0  0  0  0  0  0  0  0  0  0  0  0
   66.5767  -26.9904   37.6890 S   0  0  0  0  0  0  0  0  0  0  0  0
   68.6860  -26.9827   37.6783 S   0  0  0  0  0  0  0  0  0  0  0  0
   69.3767  -28.1403   39.3008 S   0  0  0  0  0  0  0  0  0  0  0  0
   71.4860  -28.1326   39.2900 S   0  0  0  0  0  0  0  0  0  0  0  0
   72.1767  -29.2902   40.9126 S   0  0  0  0  0  0  0  0  0  0  0  0
   74.2860  -29.2825   40.9018 S   0  0  0  0  0  0  0  0  0  0  0  0
   74.9767  -30.4400   42.5243 S   0  0  0  0  0  0  0  0  0  0  0  0
   77.0860  -30.4323   42.5136 S   0  0  0  0  0  0  0  0  0  0  0  0
   77.7766  -31.5899   44.1361 S   0  0  0  0  0  0  0  0  0  0  0  0
   79.8860  -31.5822   44.1253 S   0  0  0  0  0  0  0  0  0  0  0  0
   80.5766  -32.7398   45.7479 S   0  0  0  0  0  0  0  0  0  0  0  0
   82.6860  -32.7321   45.7371 S   0  0  0  0  0  0  0  0  0  0  0  0
   83.3766  -33.8897   47.3596 S   0  0  0  0  0  0  0  0  0  0  0  0
   85.4860  -33.8820   47.3489 S   0  0  0  0  0  0  0  0  0  0  0  0
   86.1766  -35.0395   48.9714 S   0  0  0  0  0  0  0  0  0  0  0  0
   88.2860  -35.0318   48.9606 S   0  0  0  0  0  0  0  0  0  0  0  0
   88.9766  -36.1894   50.5832 S   0  0  0  0  0  0  0  0  0  0  0  0
   91.0860  -36.1817   50.5724 S   0  0  0  0  0  0  0  0  0  0  0  0
   91.7766  -37.3393   52.1949 S   0  0  0  0  0  0  0  0  0  0  0  0
   93.8859  -37.3315   52.1841 S   0  0  0  0  0  0  0  0  0  0  0  0
   94.5762  -38.4890   53.8065 S   0  0  0  0  0  0  0  0  0  0  0  0
   96.6850  -38.4811   53.7954 S   0  0  0  0  0  0  0  0  0  0  0  0
   97.3744  -39.6381   55.4171 S   0  0  0  0  0  0  0  0  0  0  0  0
   99.4804  -39.6286   55.4043 S   0  0  0  0  0  0  0  0  0  0  0  0
  100.1650  -40.7834   57.0226 S   0  0  0  0  0  0  0  0  0  0  0  0
  102.2587  -40.7816   56.9861 S   0  0  0  0  0  0  0  0  0  0  0  0
  102.9374  -41.8736   58.6231 S   0  0  0  0  0  0  0  0  0  0  0  0
  105.0157  -41.8875   58.5594 S   0  0  0  0  0  0  0  0  0  0  0  0
  105.6192  -39.9368   58.8145 S   0  0  0  0  0  0  0  0  0  0  0  0
    8.1222  -15.7791    0.8301 H   0  0  0  0  0  0  0  0  0  0  0  0
   10.6093  -15.1101    0.1099 H   0  0  0  0  0  0  0  0  0  0  0  0
   10.4783  -15.0270    1.8560 H   0  0  0  0  0  0  0  0  0  0  0  0
   12.7519  -11.8208    4.1867 H   0  0  0  0  0  0  0  0  0  0  0  0
   12.6240  -14.4437    5.2625 H   0  0  0  0  0  0  0  0  0  0  0  0
   14.7059  -12.5398    5.3522 H   0  0  0  0  0  0  0  0  0  0  0  0
   14.3910  -15.1183    6.3777 H   0  0  0  0  0  0  0  0  0  0  0  0
   16.5381  -13.2425    6.4474 H   0  0  0  0  0  0  0  0  0  0  0  0
   16.3290  -15.8755    7.5633 H   0  0  0  0  0  0  0  0  0  0  0  0
   18.5323  -14.0050    7.6903 H   0  0  0  0  0  0  0  0  0  0  0  0
   18.3737  -16.6220    8.7686 H   0  0  0  0  0  0  0  0  0  0  0  0
   20.4578  -16.1038    7.9551 H   0  0  0  0  0  0  0  0  0  0  0  0
   20.2554  -13.8785    9.6776 H   0  0  0  0  0  0  0  0  0  0  0  0
   22.3422  -14.8490    7.9885 H   0  0  0  0  0  0  0  0  0  0  0  0
   22.1713  -12.5999    9.7346 H   0  0  0  0  0  0  0  0  0  0  0  0
   24.2253  -13.5333    8.0592 H   0  0  0  0  0  0  0  0  0  0  0  0
   24.0995  -11.2508    8.1172 H   0  0  0  0  0  0  0  0  0  0  0  0
   24.3097  -11.5320   10.9470 H   0  0  0  0  0  0  0  0  0  0  0  0
  106.9629  -40.0325   58.7737 H   0  0  0  0  0  0  0  0  0  0  0  0
  1  2  1  0  0  0  0
  1 82  1  0  0  0  0
  2  3  1  0  0  0  0
  2 83  1  0  0  0  0
  2 84  1  0  0  0  0
  3  4  1  0  0  0  0
  4  5  1  0  0  0  0
  5  6  1  0  0  0  0
  6  7  1  0  0  0  0
  6 85  1  0  0  0  0
  7  8  1  0  0  0  0
  7 86  1  0  0  0  0
  8  9  1  0  0  0  0
  8 87  1  0  0  0  0
  9 10  1  0  0  0  0
  9 88  1  0  0  0  0
 10 11  1  0  0  0  0
 10 89  1  0  0  0  0
 11 12  1  0  0  0  0
 11 90  1  0  0  0  0
 12 13  1  0  0  0  0
 12 91  1  0  0  0  0
 13 14  1  0  0  0  0
 13 92  1  0  0  0  0
 14 15  1  0  0  0  0
 14 93  1  0  0  0  0
 15 16  1  0  0  0  0
 15 94  1  0  0  0  0
 16 17  1  0  0  0  0
 16 95  1  0  0  0  0
 17 18  1  0  0  0  0
 17 96  1  0  0  0  0
 18 19  1  0  0  0  0
 18 97  1  0  0  0  0
 19 20  1  0  0  0  0
 19 98  1  0  0  0  0
 20 21  1  0  0  0  0
 20 99  1  0  0  0  0
 21 22  1  0  0  0  0
 22 23  1  0  0  0  0
 23 24  1  0  0  0  0
 24 25  1  0  0  0  0
 25 26  1  0  0  0  0
 26 27  1  0  0  0  0
 27 28  1  0  0  0  0
 28 29  1  0  0  0  0
 29 30  1  0  0  0  0
 30 31  1  0  0  0  0
 31 32  1  0  0  0  0
 32 33  1  0  0  0  0
 33 34  1  0  0  0  0
 34 35  1  0  0  0  0
 35 36  1  0  0  0  0
 36 37  1  0  0  0  0
 37 38  1  0  0  0  0
 38 39  1  0  0  0  0
 39 40  1  0  0  0  0
 40 41  1  0  0  0  0
 41 42  1  0  0  0  0
 42 43  1  0  0  0  0
 43 44  1  0  0  0  0
 44 45  1  0  0  0  0
 45 46  1  0  0  0  0
 46 47  1  0  0  0  0
 47 48  1  0  0  0  0
 48 49  1  0  0  0  0
 49 50  1  0  0  0  0
 50 51  1  0  0  0  0
 51 52  1  0  0  0  0
 52 53  1  0  0  0  0
 53 54  1  0  0  0  0
 54 55  1  0  0  0  0
 55 56  1  0  0  0  0
 56 57  1  0  0  0  0
 57 58  1  0  0  0  0
 58 59  1  0  0  0  0
 59 60  1  0  0  0  0
 60 61  1  0  0  0  0
 61 62  1  0  0  0  0
 62 63  1  0  0  0  0
 63 64  1  0  0  0  0
 64 65  1  0  0  0  0
 65 66  1  0  0  0  0
 66 67  1  0  0  0  0
 67 68  1  0  0  0  0
 68 69  1  0  0  0  0
 69 70  1  0  0  0  0
 70 71  1  0  0  0  0
 71 72  1  0  0  0  0
 72 73  1  0  0  0  0
 73 74  1  0  0  0  0
 74 75  1  0  0  0  0
 75 76  1  0  0  0  0
 76 77  1  0  0  0  0
 77 78  1  0  0  0  0
 78 79  1  0  0  0  0
 79 80  1  0  0  0  0
 80 81  1  0  0  0  0
 81100  1  0  0  0  0
M  END
$$$$
