
 OpenBabel04232216543D

203202  0  0  0  0  0  0  0  0999 V2000
    0.9436   -0.0109   -0.0976 C   0  0  0  0  0  0  0  0  0  0  0  0
    2.4615   -0.0158   -0.1039 C   0  0  0  0  0  0  0  0  0  0  0  0
    2.9874   -1.1588   -0.9657 C   0  0  0  0  0  0  0  0  0  0  0  0
    4.5141   -1.1717   -0.9797 C   0  0  0  0  0  0  0  0  0  0  0  0
    5.0415   -2.3209   -1.8477 C   0  0  0  0  0  0  0  0  0  0  0  0
    6.5005   -2.3005   -1.8378 N   0  0  0  0  0  0  0  0  0  0  0  0
    6.9744   -3.3765   -2.6525 N   0  0  0  0  0  0  0  0  0  0  0  0
    8.3750   -3.3773   -2.6469 N   0  0  0  0  0  0  0  0  0  0  0  0
    8.8546   -4.4358   -3.4306 N   0  0  0  0  0  0  0  0  0  0  0  0
   10.2489   -4.4362   -3.4653 N   0  0  0  0  0  0  0  0  0  0  0  0
   10.7378   -5.4982   -4.2410 N   0  0  0  0  0  0  0  0  0  0  0  0
   12.1360   -5.4940   -4.2443 N   0  0  0  0  0  0  0  0  0  0  0  0
   12.6064   -6.5499   -5.0481 N   0  0  0  0  0  0  0  0  0  0  0  0
   14.0241   -6.5629   -5.0467 N   0  0  0  0  0  0  0  0  0  0  0  0
   14.4948   -7.6318   -5.8393 N   0  0  0  0  0  0  0  0  0  0  0  0
   15.9348   -7.6540   -5.8853 N   0  0  0  0  0  0  0  0  0  0  0  0
   16.4320   -8.7242   -6.6816 N   0  0  0  0  0  0  0  0  0  0  0  0
   17.8433   -8.7257   -6.6746 N   0  0  0  0  0  0  0  0  0  0  0  0
   18.3172   -9.7853   -7.4739 N   0  0  0  0  0  0  0  0  0  0  0  0
   19.7133   -9.7836   -7.4670 N   0  0  0  0  0  0  0  0  0  0  0  0
   20.1859  -10.8574   -8.2806 N   0  0  0  0  0  0  0  0  0  0  0  0
   21.6449  -10.8414   -8.2651 C   0  0  0  0  0  0  0  0  0  0  0  0
   22.1618  -11.9870   -9.1313 C   0  0  0  0  0  0  0  0  0  0  0  0
   23.6845  -11.9980   -9.1365 C   0  0  0  0  0  0  0  0  0  0  0  0
   24.1995  -13.1385   -9.9988 C   0  0  0  0  0  0  0  0  0  0  0  0
   25.7183  -13.1438  -10.0028 C   0  0  0  0  0  0  0  0  0  0  0  0
   26.2299  -14.2835  -10.8646 C   0  0  0  0  0  0  0  0  0  0  0  0
   27.7469  -14.2879  -10.8680 C   0  0  0  0  0  0  0  0  0  0  0  0
   28.2576  -15.4271  -11.7294 C   0  0  0  0  0  0  0  0  0  0  0  0
   29.7740  -15.4314  -11.7326 C   0  0  0  0  0  0  0  0  0  0  0  0
   30.2844  -16.5702  -12.5939 C   0  0  0  0  0  0  0  0  0  0  0  0
   31.8007  -16.5745  -12.5970 C   0  0  0  0  0  0  0  0  0  0  0  0
   32.3111  -17.7133  -13.4582 C   0  0  0  0  0  0  0  0  0  0  0  0
   33.8274  -17.7187  -13.4598 C   0  0  0  0  0  0  0  0  0  0  0  0
   34.3378  -18.8576  -14.3210 C   0  0  0  0  0  0  0  0  0  0  0  0
   35.8541  -18.8618  -14.3241 C   0  0  0  0  0  0  0  0  0  0  0  0
   36.3645  -20.0019  -15.1837 C   0  0  0  0  0  0  0  0  0  0  0  0
   37.8807  -20.0073  -15.1853 C   0  0  0  0  0  0  0  0  0  0  0  0
   38.3911  -21.1462  -16.0465 C   0  0  0  0  0  0  0  0  0  0  0  0
   39.9074  -21.1504  -16.0496 C   0  0  0  0  0  0  0  0  0  0  0  0
   40.4178  -22.2880  -16.9124 C   0  0  0  0  0  0  0  0  0  0  0  0
   41.9340  -22.2922  -16.9156 C   0  0  0  0  0  0  0  0  0  0  0  0
   42.4444  -23.4298  -17.7784 C   0  0  0  0  0  0  0  0  0  0  0  0
   43.9607  -23.4340  -17.7816 C   0  0  0  0  0  0  0  0  0  0  0  0
   44.4711  -24.5717  -18.6444 C   0  0  0  0  0  0  0  0  0  0  0  0
   45.9874  -24.5759  -18.6476 C   0  0  0  0  0  0  0  0  0  0  0  0
   46.4978  -25.7135  -19.5104 C   0  0  0  0  0  0  0  0  0  0  0  0
   48.0140  -25.7177  -19.5135 C   0  0  0  0  0  0  0  0  0  0  0  0
   48.5244  -26.8553  -20.3763 C   0  0  0  0  0  0  0  0  0  0  0  0
   50.0407  -26.8607  -20.3779 C   0  0  0  0  0  0  0  0  0  0  0  0
   50.5511  -27.9984  -21.2407 C   0  0  0  0  0  0  0  0  0  0  0  0
   52.0673  -28.0050  -21.2407 C   0  0  0  0  0  0  0  0  0  0  0  0
   52.5777  -29.1439  -22.1019 C   0  0  0  0  0  0  0  0  0  0  0  0
   54.0940  -29.1493  -22.1034 C   0  0  0  0  0  0  0  0  0  0  0  0
   54.6044  -30.2870  -22.9662 C   0  0  0  0  0  0  0  0  0  0  0  0
   56.1207  -30.2936  -22.9662 C   0  0  0  0  0  0  0  0  0  0  0  0
   56.6310  -31.4324  -23.8274 C   0  0  0  0  0  0  0  0  0  0  0  0
   58.1473  -31.4379  -23.8289 C   0  0  0  0  0  0  0  0  0  0  0  0
   58.6578  -32.5768  -24.6901 C   0  0  0  0  0  0  0  0  0  0  0  0
   60.1741  -32.5834  -24.6902 C   0  0  0  0  0  0  0  0  0  0  0  0
   60.6847  -33.7225  -25.5515 C   0  0  0  0  0  0  0  0  0  0  0  0
   62.2018  -33.7295  -25.5517 C   0  0  0  0  0  0  0  0  0  0  0  0
   62.7134  -34.8691  -26.4135 C   0  0  0  0  0  0  0  0  0  0  0  0
   64.2321  -34.8772  -26.4145 C   0  0  0  0  0  0  0  0  0  0  0  0
   64.7475  -36.0176  -27.2768 C   0  0  0  0  0  0  0  0  0  0  0  0
   66.2680  -36.0293  -27.2804 C   0  0  0  0  0  0  0  0  0  0  0  0
   66.7861  -37.1721  -28.1433 C   0  0  0  0  0  0  0  0  0  0  0  0
   68.2952  -37.1957  -28.1757 C   0  0  0  0  0  0  0  0  0  0  0  0
   68.9568  -38.5479  -29.2104 S   0  0  0  0  0  0  0  0  0  0  0  0
   68.2402  -38.1995  -31.1123 S   0  0  0  0  0  0  0  0  0  0  0  0
   69.0009  -36.3812  -31.7298 S   0  0  0  0  0  0  0  0  0  0  0  0
   71.0681  -36.5052  -31.7960 S   0  0  0  0  0  0  0  0  0  0  0  0
   71.8140  -34.6426  -32.4046 S   0  0  0  0  0  0  0  0  0  0  0  0
   73.9153  -34.7507  -32.4203 S   0  0  0  0  0  0  0  0  0  0  0  0
   74.6836  -32.8936  -33.0526 S   0  0  0  0  0  0  0  0  0  0  0  0
   76.7876  -33.0035  -33.0677 S   0  0  0  0  0  0  0  0  0  0  0  0
   77.5544  -31.1482  -33.6989 S   0  0  0  0  0  0  0  0  0  0  0  0
   79.6471  -31.2645  -33.6877 S   0  0  0  0  0  0  0  0  0  0  0  0
   80.4095  -29.4555  -34.3784 S   0  0  0  0  0  0  0  0  0  0  0  0
   82.4879  -29.5749  -34.3329 S   0  0  0  0  0  0  0  0  0  0  0  0
   83.0226  -31.0124  -35.6983 S   0  0  0  0  0  0  0  0  0  0  0  0
    0.5694    0.8082    0.5201 H   0  0  0  0  0  0  0  0  0  0  0  0
    0.5570   -0.9525    0.3044 H   0  0  0  0  0  0  0  0  0  0  0  0
    0.5546    0.1151   -1.1126 H   0  0  0  0  0  0  0  0  0  0  0  0
    2.8314   -0.1197    0.9229 H   0  0  0  0  0  0  0  0  0  0  0  0
    2.8290    0.9430   -0.4879 H   0  0  0  0  0  0  0  0  0  0  0  0
    2.6074   -1.0527   -1.9892 H   0  0  0  0  0  0  0  0  0  0  0  0
    2.6121   -2.1140   -0.5786 H   0  0  0  0  0  0  0  0  0  0  0  0
    4.8837   -1.2721    0.0482 H   0  0  0  0  0  0  0  0  0  0  0  0
    4.8800   -0.2110   -1.3637 H   0  0  0  0  0  0  0  0  0  0  0  0
    4.6565   -2.1936   -2.8659 H   0  0  0  0  0  0  0  0  0  0  0  0
    4.6567   -3.2695   -1.4533 H   0  0  0  0  0  0  0  0  0  0  0  0
    6.8330   -2.4321   -0.8855 H   0  0  0  0  0  0  0  0  0  0  0  0
    6.6439   -3.2544   -3.6022 H   0  0  0  0  0  0  0  0  0  0  0  0
    8.7135   -3.4977   -1.6898 H   0  0  0  0  0  0  0  0  0  0  0  0
    8.5108   -4.3079   -4.3961 H   0  0  0  0  0  0  0  0  0  0  0  0
   10.5864   -4.5449   -2.4889 H   0  0  0  0  0  0  0  0  0  0  0  0
   10.3922   -5.3859   -5.1924 H   0  0  0  0  0  0  0  0  0  0  0  0
   12.4741   -5.6242   -3.2882 H   0  0  0  0  0  0  0  0  0  0  0  0
   12.2433   -6.4205   -5.9843 H   0  0  0  0  0  0  0  0  0  0  0  0
   14.2974   -6.6409   -4.0624 H   0  0  0  0  0  0  0  0  0  0  0  0
   14.1280   -7.4965   -6.7931 H   0  0  0  0  0  0  0  0  0  0  0  0
   16.3166   -7.7996   -4.9365 H   0  0  0  0  0  0  0  0  0  0  0  0
   16.1321   -8.6030   -7.6452 H   0  0  0  0  0  0  0  0  0  0  0  0
   18.1929   -8.8595   -5.7324 H   0  0  0  0  0  0  0  0  0  0  0  0
   17.9750   -9.6589   -8.4264 H   0  0  0  0  0  0  0  0  0  0  0  0
   20.0442   -9.9076   -6.5147 H   0  0  0  0  0  0  0  0  0  0  0  0
   19.8506  -10.7259   -9.2385 H   0  0  0  0  0  0  0  0  0  0  0  0
   22.0211  -10.9706   -7.2435 H   0  0  0  0  0  0  0  0  0  0  0  0
   22.0296   -9.8904   -8.6541 H   0  0  0  0  0  0  0  0  0  0  0  0
   21.7943  -11.8823  -10.1599 H   0  0  0  0  0  0  0  0  0  0  0  0
   21.7909  -12.9465   -8.7499 H   0  0  0  0  0  0  0  0  0  0  0  0
   24.0618  -12.1095   -8.1128 H   0  0  0  0  0  0  0  0  0  0  0  0
   24.0640  -11.0438   -9.5209 H   0  0  0  0  0  0  0  0  0  0  0  0
   23.8265  -13.0304  -11.0243 H   0  0  0  0  0  0  0  0  0  0  0  0
   23.8264  -14.0958   -9.6156 H   0  0  0  0  0  0  0  0  0  0  0  0
   26.0949  -13.2538   -8.9787 H   0  0  0  0  0  0  0  0  0  0  0  0
   26.0949  -12.1884  -10.3876 H   0  0  0  0  0  0  0  0  0  0  0  0
   25.8552  -14.1746  -11.8897 H   0  0  0  0  0  0  0  0  0  0  0  0
   25.8552  -15.2401  -10.4806 H   0  0  0  0  0  0  0  0  0  0  0  0
   28.1227  -14.3974   -9.8434 H   0  0  0  0  0  0  0  0  0  0  0  0
   28.1227  -13.3319  -11.2525 H   0  0  0  0  0  0  0  0  0  0  0  0
   27.8822  -15.3179  -12.7543 H   0  0  0  0  0  0  0  0  0  0  0  0
   27.8822  -16.3835  -11.3452 H   0  0  0  0  0  0  0  0  0  0  0  0
   30.1496  -15.5406  -10.7078 H   0  0  0  0  0  0  0  0  0  0  0  0
   30.1496  -14.4750  -12.1169 H   0  0  0  0  0  0  0  0  0  0  0  0
   29.9090  -16.4611  -13.6188 H   0  0  0  0  0  0  0  0  0  0  0  0
   29.9089  -17.5266  -12.2096 H   0  0  0  0  0  0  0  0  0  0  0  0
   32.1762  -16.6837  -11.5721 H   0  0  0  0  0  0  0  0  0  0  0  0
   32.1763  -15.6181  -12.9813 H   0  0  0  0  0  0  0  0  0  0  0  0
   31.9367  -17.6033  -14.4834 H   0  0  0  0  0  0  0  0  0  0  0  0
   31.9345  -18.6696  -13.0748 H   0  0  0  0  0  0  0  0  0  0  0  0
   34.2018  -17.8287  -12.4346 H   0  0  0  0  0  0  0  0  0  0  0  0
   34.2041  -16.7625  -13.8432 H   0  0  0  0  0  0  0  0  0  0  0  0
   33.9623  -18.7484  -15.3459 H   0  0  0  0  0  0  0  0  0  0  0  0
   33.9622  -19.8139  -13.9367 H   0  0  0  0  0  0  0  0  0  0  0  0
   36.2296  -18.9696  -13.2991 H   0  0  0  0  0  0  0  0  0  0  0  0
   36.2296  -17.9060  -14.7097 H   0  0  0  0  0  0  0  0  0  0  0  0
   35.9900  -19.8933  -16.2091 H   0  0  0  0  0  0  0  0  0  0  0  0
   35.9878  -20.9576  -14.7990 H   0  0  0  0  0  0  0  0  0  0  0  0
   38.2551  -20.1173  -14.1601 H   0  0  0  0  0  0  0  0  0  0  0  0
   38.2574  -19.0510  -15.5687 H   0  0  0  0  0  0  0  0  0  0  0  0
   38.0156  -21.0369  -17.0714 H   0  0  0  0  0  0  0  0  0  0  0  0
   38.0156  -22.1025  -15.6622 H   0  0  0  0  0  0  0  0  0  0  0  0
   40.2829  -21.2610  -15.0249 H   0  0  0  0  0  0  0  0  0  0  0  0
   40.2829  -20.1935  -16.4326 H   0  0  0  0  0  0  0  0  0  0  0  0
   40.0423  -22.1773  -17.9372 H   0  0  0  0  0  0  0  0  0  0  0  0
   40.0422  -23.2449  -16.5295 H   0  0  0  0  0  0  0  0  0  0  0  0
   42.3096  -22.4028  -15.8909 H   0  0  0  0  0  0  0  0  0  0  0  0
   42.3096  -21.3353  -17.2985 H   0  0  0  0  0  0  0  0  0  0  0  0
   42.0689  -23.3192  -18.8031 H   0  0  0  0  0  0  0  0  0  0  0  0
   42.0689  -24.3867  -17.3955 H   0  0  0  0  0  0  0  0  0  0  0  0
   44.3362  -23.5447  -16.7569 H   0  0  0  0  0  0  0  0  0  0  0  0
   44.3362  -22.4771  -18.1645 H   0  0  0  0  0  0  0  0  0  0  0  0
   44.0956  -24.4610  -19.6691 H   0  0  0  0  0  0  0  0  0  0  0  0
   44.0956  -25.5286  -18.2615 H   0  0  0  0  0  0  0  0  0  0  0  0
   46.3629  -24.6865  -17.6228 H   0  0  0  0  0  0  0  0  0  0  0  0
   46.3629  -23.6189  -19.0305 H   0  0  0  0  0  0  0  0  0  0  0  0
   46.1222  -25.6028  -20.5351 H   0  0  0  0  0  0  0  0  0  0  0  0
   46.1222  -26.6704  -19.1274 H   0  0  0  0  0  0  0  0  0  0  0  0
   48.3895  -25.8283  -18.4888 H   0  0  0  0  0  0  0  0  0  0  0  0
   48.3896  -24.7608  -19.8964 H   0  0  0  0  0  0  0  0  0  0  0  0
   48.1500  -26.7439  -21.4014 H   0  0  0  0  0  0  0  0  0  0  0  0
   48.1478  -27.8121  -19.9943 H   0  0  0  0  0  0  0  0  0  0  0  0
   50.4150  -26.9722  -19.3528 H   0  0  0  0  0  0  0  0  0  0  0  0
   50.4174  -25.9040  -20.7600 H   0  0  0  0  0  0  0  0  0  0  0  0
   50.1779  -27.8862  -22.2661 H   0  0  0  0  0  0  0  0  0  0  0  0
   50.1732  -28.9551  -20.8595 H   0  0  0  0  0  0  0  0  0  0  0  0
   52.4406  -28.1159  -20.2151 H   0  0  0  0  0  0  0  0  0  0  0  0
   52.4451  -27.0488  -21.6232 H   0  0  0  0  0  0  0  0  0  0  0  0
   52.2034  -29.0339  -23.1271 H   0  0  0  0  0  0  0  0  0  0  0  0
   52.2010  -30.1001  -21.7185 H   0  0  0  0  0  0  0  0  0  0  0  0
   54.4683  -29.2607  -21.0783 H   0  0  0  0  0  0  0  0  0  0  0  0
   54.4708  -28.1926  -22.4855 H   0  0  0  0  0  0  0  0  0  0  0  0
   54.2312  -30.1748  -23.9916 H   0  0  0  0  0  0  0  0  0  0  0  0
   54.2265  -31.2436  -22.5850 H   0  0  0  0  0  0  0  0  0  0  0  0
   56.4939  -30.4044  -21.9406 H   0  0  0  0  0  0  0  0  0  0  0  0
   56.4985  -29.3374  -23.3487 H   0  0  0  0  0  0  0  0  0  0  0  0
   56.2567  -31.3225  -24.8526 H   0  0  0  0  0  0  0  0  0  0  0  0
   56.2543  -32.3887  -23.4439 H   0  0  0  0  0  0  0  0  0  0  0  0
   58.5216  -31.5479  -22.8037 H   0  0  0  0  0  0  0  0  0  0  0  0
   58.5241  -30.4816  -24.2123 H   0  0  0  0  0  0  0  0  0  0  0  0
   58.2845  -32.4660  -25.7157 H   0  0  0  0  0  0  0  0  0  0  0  0
   58.2799  -33.5329  -24.3076 H   0  0  0  0  0  0  0  0  0  0  0  0
   60.5472  -32.6942  -23.6645 H   0  0  0  0  0  0  0  0  0  0  0  0
   60.5519  -31.6273  -25.0726 H   0  0  0  0  0  0  0  0  0  0  0  0
   60.3113  -33.6115  -26.5769 H   0  0  0  0  0  0  0  0  0  0  0  0
   60.3066  -34.6784  -25.1688 H   0  0  0  0  0  0  0  0  0  0  0  0
   62.5741  -33.8399  -24.5259 H   0  0  0  0  0  0  0  0  0  0  0  0
   62.5788  -32.7730  -25.9339 H   0  0  0  0  0  0  0  0  0  0  0  0
   62.3389  -34.7574  -27.4382 H   0  0  0  0  0  0  0  0  0  0  0  0
   62.3341  -35.8242  -26.0302 H   0  0  0  0  0  0  0  0  0  0  0  0
   64.6026  -34.9865  -25.3882 H   0  0  0  0  0  0  0  0  0  0  0  0
   64.6073  -33.9199  -26.7958 H   0  0  0  0  0  0  0  0  0  0  0  0
   64.3702  -35.9054  -28.3008 H   0  0  0  0  0  0  0  0  0  0  0  0
   64.3655  -36.9717  -26.8934 H   0  0  0  0  0  0  0  0  0  0  0  0
   66.6383  -36.1376  -26.2533 H   0  0  0  0  0  0  0  0  0  0  0  0
   66.6428  -35.0710  -27.6614 H   0  0  0  0  0  0  0  0  0  0  0  0
   66.3947  -37.0466  -29.1572 H   0  0  0  0  0  0  0  0  0  0  0  0
   66.4039  -38.1232  -27.7552 H   0  0  0  0  0  0  0  0  0  0  0  0
   68.6922  -37.3198  -27.1580 H   0  0  0  0  0  0  0  0  0  0  0  0
   68.7037  -36.2503  -28.5429 H   0  0  0  0  0  0  0  0  0  0  0  0
   84.3695  -31.0218  -35.6230 H   0  0  0  0  0  0  0  0  0  0  0  0
  1  2  1  0  0  0  0
  1 82  1  0  0  0  0
  1 83  1  0  0  0  0
  1 84  1  0  0  0  0
  2  3  1  0  0  0  0
  2 85  1  0  0  0  0
  2 86  1  0  0  0  0
  3  4  1  0  0  0  0
  3 87  1  0  0  0  0
  3 88  1  0  0  0  0
  4  5  1  0  0  0  0
  4 89  1  0  0  0  0
  4 90  1  0  0  0  0
  5  6  1  0  0  0  0
  5 91  1  0  0  0  0
  5 92  1  0  0  0  0
  6  7  1  0  0  0  0
  6 93  1  0  0  0  0
  7  8  1  0  0  0  0
  7 94  1  0  0  0  0
  8  9  1  0  0  0  0
  8 95  1  0  0  0  0
  9 10  1  0  0  0  0
  9 96  1  0  0  0  0
 10 11  1  0  0  0  0
 10 97  1  0  0  0  0
 11 12  1  0  0  0  0
 11 98  1  0  0  0  0
 12 13  1  0  0  0  0
 12 99  1  0  0  0  0
 13 14  1  0  0  0  0
 13100  1  0  0  0  0
 14 15  1  0  0  0  0
 14101  1  0  0  0  0
 15 16  1  0  0  0  0
 15102  1  0  0  0  0
 16 17  1  0  0  0  0
 16103  1  0  0  0  0
 17 18  1  0  0  0  0
 17104  1  0  0  0  0
 18 19  1  0  0  0  0
 18105  1  0  0  0  0
 19 20  1  0  0  0  0
 19106  1  0  0  0  0
 20 21  1  0  0  0  0
 20107  1  0  0  0  0
 21 22  1  0  0  0  0
 21108  1  0  0  0  0
 22 23  1  0  0  0  0
 22109  1  0  0  0  0
 22110  1  0  0  0  0
 23 24  1  0  0  0  0
 23111  1  0  0  0  0
 23112  1  0  0  0  0
 24 25  1  0  0  0  0
 24113  1  0  0  0  0
 24114  1  0  0  0  0
 25 26  1  0  0  0  0
 25115  1  0  0  0  0
 25116  1  0  0  0  0
 26 27  1  0  0  0  0
 26117  1  0  0  0  0
 26118  1  0  0  0  0
 27 28  1  0  0  0  0
 27119  1  0  0  0  0
 27120  1  0  0  0  0
 28 29  1  0  0  0  0
 28121  1  0  0  0  0
 28122  1  0  0  0  0
 29 30  1  0  0  0  0
 29123  1  0  0  0  0
 29124  1  0  0  0  0
 30 31  1  0  0  0  0
 30125  1  0  0  0  0
 30126  1  0  0  0  0
 31 32  1  0  0  0  0
 31127  1  0  0  0  0
 31128  1  0  0  0  0
 32 33  1  0  0  0  0
 32129  1  0  0  0  0
 32130  1  0  0  0  0
 33 34  1  0  0  0  0
 33131  1  0  0  0  0
 33132  1  0  0  0  0
 34 35  1  0  0  0  0
 34133  1  0  0  0  0
 34134  1  0  0  0  0
 35 36  1  0  0  0  0
 35135  1  0  0  0  0
 35136  1  0  0  0  0
 36 37  1  0  0  0  0
 36137  1  0  0  0  0
 36138  1  0  0  0  0
 37 38  1  0  0  0  0
 37139  1  0  0  0  0
 37140  1  0  0  0  0
 38 39  1  0  0  0  0
 38141  1  0  0  0  0
 38142  1  0  0  0  0
 39 40  1  0  0  0  0
 39143  1  0  0  0  0
 39144  1  0  0  0  0
 40 41  1  0  0  0  0
 40145  1  0  0  0  0
 40146  1  0  0  0  0
 41 42  1  0  0  0  0
 41147  1  0  0  0  0
 41148  1  0  0  0  0
 42 43  1  0  0  0  0
 42149  1  0  0  0  0
 42150  1  0  0  0  0
 43 44  1  0  0  0  0
 43151  1  0  0  0  0
 43152  1  0  0  0  0
 44 45  1  0  0  0  0
 44153  1  0  0  0  0
 44154  1  0  0  0  0
 45 46  1  0  0  0  0
 45155  1  0  0  0  0
 45156  1  0  0  0  0
 46 47  1  0  0  0  0
 46157  1  0  0  0  0
 46158  1  0  0  0  0
 47 48  1  0  0  0  0
 47159  1  0  0  0  0
 47160  1  0  0  0  0
 48 49  1  0  0  0  0
 48161  1  0  0  0  0
 48162  1  0  0  0  0
 49 50  1  0  0  0  0
 49163  1  0  0  0  0
 49164  1  0  0  0  0
 50 51  1  0  0  0  0
 50165  1  0  0  0  0
 50166  1  0  0  0  0
 51 52  1  0  0  0  0
 51167  1  0  0  0  0
 51168  1  0  0  0  0
 52 53  1  0  0  0  0
 52169  1  0  0  0  0
 52170  1  0  0  0  0
 53 54  1  0  0  0  0
 53171  1  0  0  0  0
 53172  1  0  0  0  0
 54 55  1  0  0  0  0
 54173  1  0  0  0  0
 54174  1  0  0  0  0
 55 56  1  0  0  0  0
 55175  1  0  0  0  0
 55176  1  0  0  0  0
 56 57  1  0  0  0  0
 56177  1  0  0  0  0
 56178  1  0  0  0  0
 57 58  1  0  0  0  0
 57179  1  0  0  0  0
 57180  1  0  0  0  0
 58 59  1  0  0  0  0
 58181  1  0  0  0  0
 58182  1  0  0  0  0
 59 60  1  0  0  0  0
 59183  1  0  0  0  0
 59184  1  0  0  0  0
 60 61  1  0  0  0  0
 60185  1  0  0  0  0
 60186  1  0  0  0  0
 61 62  1  0  0  0  0
 61187  1  0  0  0  0
 61188  1  0  0  0  0
 62 63  1  0  0  0  0
 62189  1  0  0  0  0
 62190  1  0  0  0  0
 63 64  1  0  0  0  0
 63191  1  0  0  0  0
 63192  1  0  0  0  0
 64 65  1  0  0  0  0
 64193  1  0  0  0  0
 64194  1  0  0  0  0
 65 66  1  0  0  0  0
 65195  1  0  0  0  0
 65196  1  0  0  0  0
 66 67  1  0  0  0  0
 66197  1  0  0  0  0
 66198  1  0  0  0  0
 67 68  1  0  0  0  0
 67199  1  0  0  0  0
 67200  1  0  0  0  0
 68 69  1  0  0  0  0
 68201  1  0  0  0  0
 68202  1  0  0  0  0
 69 70  1  0  0  0  0
 70 71  1  0  0  0  0
 71 72  1  0  0  0  0
 72 73  1  0  0  0  0
 73 74  1  0  0  0  0
 74 75  1  0  0  0  0
 75 76  1  0  0  0  0
 76 77  1  0  0  0  0
 77 78  1  0  0  0  0
 78 79  1  0  0  0  0
 79 80  1  0  0  0  0
 80 81  1  0  0  0  0
 81203  1  0  0  0  0
M  END
$$$$
