
 OpenBabel04232216593D

 92 91  0  0  0  0  0  0  0  0999 V2000
   14.3253    1.6926  -14.3121 O   0  0  0  0  0  0  0  0  0  0  0  0
   13.8779    1.6075  -15.4553 C   0  0  0  0  0  0  0  0  0  0  0  0
   14.6640    2.0202  -16.6585 C   0  0  0  0  0  0  0  0  0  0  0  0
   12.6623    1.1419  -15.8562 O   0  0  0  0  0  0  0  0  0  0  0  0
   11.9911    0.6852  -14.6441 O   0  0  0  0  0  0  0  0  0  0  0  0
   10.6286    1.1881  -14.5929 O   0  0  0  0  0  0  0  0  0  0  0  0
   10.0152    0.8562  -13.3198 O   0  0  0  0  0  0  0  0  0  0  0  0
   10.4582    1.7819  -12.2976 O   0  0  0  0  0  0  0  0  0  0  0  0
    9.5781    1.7450  -11.1462 O   0  0  0  0  0  0  0  0  0  0  0  0
   10.1203    2.5808  -10.0935 O   0  0  0  0  0  0  0  0  0  0  0  0
    9.6536    2.1643   -8.7788 O   0  0  0  0  0  0  0  0  0  0  0  0
    9.9694    0.7563   -8.4820 O   0  0  0  0  0  0  0  0  0  0  0  0
   11.3694    0.7252   -8.2108 C   0  0  0  0  0  0  0  0  0  0  0  0
   11.7846    1.6703   -7.2197 O   0  0  0  0  0  0  0  0  0  0  0  0
   13.1892    1.7982   -7.1468 C   0  0  0  0  0  0  0  0  0  0  0  0
   13.7488    2.2797   -8.3508 O   0  0  0  0  0  0  0  0  0  0  0  0
   15.1393    2.1381   -8.3568 C   0  0  0  0  0  0  0  0  0  0  0  0
   15.5525    2.5386   -9.6282 O   0  0  0  0  0  0  0  0  0  0  0  0
   16.9464    2.4834   -9.7442 C   0  0  0  0  0  0  0  0  0  0  0  0
   17.2266    2.8391  -11.0647 O   0  0  0  0  0  0  0  0  0  0  0  0
   18.6106    2.7722  -11.2237 C   0  0  0  0  0  0  0  0  0  0  0  0
   18.9753    3.1858  -12.5147 O   0  0  0  0  0  0  0  0  0  0  0  0
   20.3212    2.7194  -12.5616 O   0  0  0  0  0  0  0  0  0  0  0  0
   20.9158    3.0204  -13.8103 O   0  0  0  0  0  0  0  0  0  0  0  0
   22.2073    3.5567  -13.5375 O   0  0  0  0  0  0  0  0  0  0  0  0
   22.8623    3.9052  -14.7470 O   0  0  0  0  0  0  0  0  0  0  0  0
   24.0585    3.1308  -14.8412 O   0  0  0  0  0  0  0  0  0  0  0  0
   24.6639    3.3432  -16.1081 O   0  0  0  0  0  0  0  0  0  0  0  0
   25.7669    4.2366  -15.9440 O   0  0  0  0  0  0  0  0  0  0  0  0
   26.2842    4.5472  -17.2200 O   0  0  0  0  0  0  0  0  0  0  0  0
   27.4853    3.8189  -17.4663 O   0  0  0  0  0  0  0  0  0  0  0  0
   27.9521    4.2936  -18.7105 O   0  0  0  0  0  0  0  0  0  0  0  0
   29.2954    4.7400  -18.6492 O   0  0  0  0  0  0  0  0  0  0  0  0
   29.8180    4.3853  -19.9200 O   0  0  0  0  0  0  0  0  0  0  0  0
   31.2215    4.3458  -19.9132 O   0  0  0  0  0  0  0  0  0  0  0  0
   31.6522    5.3581  -20.8134 O   0  0  0  0  0  0  0  0  0  0  0  0
   33.0640    5.3887  -20.8761 O   0  0  0  0  0  0  0  0  0  0  0  0
   33.4372    4.9712  -22.1772 O   0  0  0  0  0  0  0  0  0  0  0  0
   34.8466    4.8618  -22.2642 O   0  0  0  0  0  0  0  0  0  0  0  0
   35.2136    5.4221  -23.5067 O   0  0  0  0  0  0  0  0  0  0  0  0
   36.5350    5.9209  -23.4730 O   0  0  0  0  0  0  0  0  0  0  0  0
   36.9458    6.0063  -24.8265 O   0  0  0  0  0  0  0  0  0  0  0  0
   38.2415    5.4801  -24.9686 O   0  0  0  0  0  0  0  0  0  0  0  0
   38.9610    6.3396  -25.8362 O   0  0  0  0  0  0  0  0  0  0  0  0
   40.2929    5.8481  -25.8709 O   0  0  0  0  0  0  0  0  0  0  0  0
   40.8422    6.0073  -27.1656 O   0  0  0  0  0  0  0  0  0  0  0  0
   41.9167    6.9526  -27.0812 O   0  0  0  0  0  0  0  0  0  0  0  0
   42.5008    7.1053  -28.3738 O   0  0  0  0  0  0  0  0  0  0  0  0
   43.5143    6.1044  -28.5663 O   0  0  0  0  0  0  0  0  0  0  0  0
   44.2344    6.4012  -29.7655 O   0  0  0  0  0  0  0  0  0  0  0  0
   45.2067    7.4238  -29.4895 O   0  0  0  0  0  0  0  0  0  0  0  0
   45.9097    7.7474  -30.6891 O   0  0  0  0  0  0  0  0  0  0  0  0
   47.0115    6.8435  -30.8319 O   0  0  0  0  0  0  0  0  0  0  0  0
   47.6174    7.0388  -32.0979 O   0  0  0  0  0  0  0  0  0  0  0  0
   48.8522    7.7378  -31.9366 O   0  0  0  0  0  0  0  0  0  0  0  0
   49.3477    7.9754  -33.2322 O   0  0  0  0  0  0  0  0  0  0  0  0
   50.6790    7.4998  -33.3835 O   0  0  0  0  0  0  0  0  0  0  0  0
   51.1538    8.2123  -34.5047 O   0  0  0  0  0  0  0  0  0  0  0  0
   52.5552    8.3558  -34.4569 O   0  0  0  0  0  0  0  0  0  0  0  0
   53.0433    7.9982  -35.7384 O   0  0  0  0  0  0  0  0  0  0  0  0
   54.4320    8.1627  -35.7119 O   0  0  0  0  0  0  0  0  0  0  0  0
   54.8565    8.9553  -36.8023 O   0  0  0  0  0  0  0  0  0  0  0  0
   56.2105    8.6081  -36.9713 O   0  0  0  0  0  0  0  0  0  0  0  0
   56.5994    8.7062  -38.3151 O   0  0  0  0  0  0  0  0  0  0  0  0
   57.9578    9.0995  -38.2872 O   0  0  0  0  0  0  0  0  0  0  0  0
   58.4108    9.2427  -39.6062 O   0  0  0  0  0  0  0  0  0  0  0  0
   59.7976    8.9844  -39.6403 O   0  0  0  0  0  0  0  0  0  0  0  0
   60.3170    9.6406  -40.7806 O   0  0  0  0  0  0  0  0  0  0  0  0
   61.7241    9.5697  -40.7379 O   0  0  0  0  0  0  0  0  0  0  0  0
   62.2352    9.5541  -42.0635 O   0  0  0  0  0  0  0  0  0  0  0  0
   63.6164    9.9058  -41.9851 O   0  0  0  0  0  0  0  0  0  0  0  0
   64.0948   10.3344  -43.2549 O   0  0  0  0  0  0  0  0  0  0  0  0
   65.4408    9.8609  -43.4271 O   0  0  0  0  0  0  0  0  0  0  0  0
   65.8958   10.1890  -44.7465 O   0  0  0  0  0  0  0  0  0  0  0  0
   67.1902   10.8202  -44.6985 O   0  0  0  0  0  0  0  0  0  0  0  0
   67.7801   10.7839  -46.0182 O   0  0  0  0  0  0  0  0  0  0  0  0
   69.2109   10.6138  -45.9398 O   0  0  0  0  0  0  0  0  0  0  0  0
   69.5516    9.2528  -45.5841 O   0  0  0  0  0  0  0  0  0  0  0  0
   15.6169    2.4419  -16.3865 H   0  0  0  0  0  0  0  0  0  0  0  0
   14.0961    2.8415  -17.2049 H   0  0  0  0  0  0  0  0  0  0  0  0
   14.8052    1.1905  -17.3431 H   0  0  0  0  0  0  0  0  0  0  0  0
   11.8954    0.9133   -9.1562 H   0  0  0  0  0  0  0  0  0  0  0  0
   11.6413   -0.2849   -7.8552 H   0  0  0  0  0  0  0  0  0  0  0  0
   13.6114    0.8263   -6.9015 H   0  0  0  0  0  0  0  0  0  0  0  0
   13.4469    2.4858   -6.3310 H   0  0  0  0  0  0  0  0  0  0  0  0
   15.4384    1.1006   -8.1691 H   0  0  0  0  0  0  0  0  0  0  0  0
   15.5875    2.8237   -7.6043 H   0  0  0  0  0  0  0  0  0  0  0  0
   17.3140    1.4633   -9.5007 H   0  0  0  0  0  0  0  0  0  0  0  0
   17.4057    3.2125   -9.0573 H   0  0  0  0  0  0  0  0  0  0  0  0
   18.9692    1.7443  -11.0347 H   0  0  0  0  0  0  0  0  0  0  0  0
   19.1174    3.4470  -10.5245 H   0  0  0  0  0  0  0  0  0  0  0  0
   70.4599    9.4588  -45.3068 H   0  0  0  0  0  0  0  0  0  0  0  0
  1  2  2  0  0  0  0
  2  3  1  0  0  0  0
  2  4  1  0  0  0  0
  3 79  1  0  0  0  0
  3 80  1  0  0  0  0
  3 81  1  0  0  0  0
  4  5  1  0  0  0  0
  5  6  1  0  0  0  0
  6  7  1  0  0  0  0
  7  8  1  0  0  0  0
  8  9  1  0  0  0  0
  9 10  1  0  0  0  0
 10 11  1  0  0  0  0
 11 12  1  0  0  0  0
 12 13  1  0  0  0  0
 13 14  1  0  0  0  0
 13 82  1  0  0  0  0
 13 83  1  0  0  0  0
 14 15  1  0  0  0  0
 15 16  1  0  0  0  0
 15 84  1  0  0  0  0
 15 85  1  0  0  0  0
 16 17  1  0  0  0  0
 17 18  1  0  0  0  0
 17 86  1  0  0  0  0
 17 87  1  0  0  0  0
 18 19  1  0  0  0  0
 19 20  1  0  0  0  0
 19 88  1  0  0  0  0
 19 89  1  0  0  0  0
 20 21  1  0  0  0  0
 21 22  1  0  0  0  0
 21 90  1  0  0  0  0
 21 91  1  0  0  0  0
 22 23  1  0  0  0  0
 23 24  1  0  0  0  0
 24 25  1  0  0  0  0
 25 26  1  0  0  0  0
 26 27  1  0  0  0  0
 27 28  1  0  0  0  0
 28 29  1  0  0  0  0
 29 30  1  0  0  0  0
 30 31  1  0  0  0  0
 31 32  1  0  0  0  0
 32 33  1  0  0  0  0
 33 34  1  0  0  0  0
 34 35  1  0  0  0  0
 35 36  1  0  0  0  0
 36 37  1  0  0  0  0
 37 38  1  0  0  0  0
 38 39  1  0  0  0  0
 39 40  1  0  0  0  0
 40 41  1  0  0  0  0
 41 42  1  0  0  0  0
 42 43  1  0  0  0  0
 43 44  1  0  0  0  0
 44 45  1  0  0  0  0
 45 46  1  0  0  0  0
 46 47  1  0  0  0  0
 47 48  1  0  0  0  0
 48 49  1  0  0  0  0
 49 50  1  0  0  0  0
 50 51  1  0  0  0  0
 51 52  1  0  0  0  0
 52 53  1  0  0  0  0
 53 54  1  0  0  0  0
 54 55  1  0  0  0  0
 55 56  1  0  0  0  0
 56 57  1  0  0  0  0
 57 58  1  0  0  0  0
 58 59  1  0  0  0  0
 59 60  1  0  0  0  0
 60 61  1  0  0  0  0
 61 62  1  0  0  0  0
 62 63  1  0  0  0  0
 63 64  1  0  0  0  0
 64 65  1  0  0  0  0
 65 66  1  0  0  0  0
 66 67  1  0  0  0  0
 67 68  1  0  0  0  0
 68 69  1  0  0  0  0
 69 70  1  0  0  0  0
 70 71  1  0  0  0  0
 71 72  1  0  0  0  0
 72 73  1  0  0  0  0
 73 74  1  0  0  0  0
 74 75  1  0  0  0  0
 75 76  1  0  0  0  0
 76 77  1  0  0  0  0
 77 78  1  0  0  0  0
 78 92  1  0  0  0  0
M  END
$$$$
