
 OpenBabel04232216393D

 17 17  0  0  0  0  0  0  0  0999 V2000
    4.8415    1.2111    0.7986 C   0  0  0  0  0  0  0  0  0  0  0  0
    5.8335    0.4852    1.6007 C   0  0  0  0  0  0  0  0  0  0  0  0
    5.4119   -0.6240    2.2519 C   0  0  0  0  0  0  0  0  0  0  0  0
    5.1761   -0.5457    3.7612 C   0  0  0  0  0  0  0  0  0  0  0  0
    3.7742    0.0548    3.9258 C   0  0  0  0  0  0  0  0  0  0  0  0
    3.6439    1.3985    3.8426 C   0  0  0  0  0  0  0  0  0  0  0  0
    2.9343    1.9948    2.6273 C   0  0  0  0  0  0  0  0  0  0  0  0
    3.8366    1.7059    1.4775 C   0  0  0  0  0  3  0  0  0  0  0  0
    5.0994    1.5555   -0.1928 H   0  0  0  0  0  0  0  0  0  0  0  0
    6.5135    1.1705    2.1102 H   0  0  0  0  0  0  0  0  0  0  0  0
    4.6765   -1.2600    1.7542 H   0  0  0  0  0  0  0  0  0  0  0  0
    5.9351    0.0773    4.2507 H   0  0  0  0  0  0  0  0  0  0  0  0
    5.2210   -1.5425    4.2085 H   0  0  0  0  0  0  0  0  0  0  0  0
    2.9964   -0.5722    3.4874 H   0  0  0  0  0  0  0  0  0  0  0  0
    4.4610    2.0267    4.1988 H   0  0  0  0  0  0  0  0  0  0  0  0
    2.8130    3.0741    2.7679 H   0  0  0  0  0  0  0  0  0  0  0  0
    1.9446    1.5501    2.4849 H   0  0  0  0  0  0  0  0  0  0  0  0
  1  2  1  0  0  0  0
  1  8  2  0  0  0  0
  1  9  1  0  0  0  0
  2  3  2  0  0  0  0
  2 10  1  0  0  0  0
  3  4  1  0  0  0  0
  3 11  1  0  0  0  0
  4  5  1  0  0  0  0
  4 12  1  0  0  0  0
  4 13  1  0  0  0  0
  5  6  2  0  0  0  0
  5 14  1  0  0  0  0
  6  7  1  0  0  0  0
  6 15  1  0  0  0  0
  7  8  1  0  0  0  0
  7 16  1  0  0  0  0
  7 17  1  0  0  0  0
M  END
$$$$
