
 OpenBabel04232217033D

126125  0  0  0  0  0  0  0  0999 V2000
   27.5184    1.6629   18.7745 S   0  0  0  0  0  0  0  0  0  0  0  0
   26.9751    0.4866   17.7301 O   0  0  0  0  0  0  0  0  0  0  0  0
   25.5426    0.3468   17.8795 O   0  0  0  0  0  0  0  0  0  0  0  0
   25.0024   -0.5819   16.9103 O   0  0  0  0  0  0  0  0  0  0  0  0
   23.3663   -0.7425   17.1212 S   0  0  0  0  0  0  0  0  0  0  0  0
   22.9149    0.8060   16.7344 N   0  0  0  0  0  0  0  0  0  0  0  0
   21.4853    0.9932   16.9320 O   0  0  0  0  0  0  0  0  0  0  0  0
   21.0759    0.6900   18.3054 O   0  0  0  0  0  0  0  0  0  0  0  0
   21.6930    1.5995   19.2424 N   0  0  0  0  0  0  0  0  0  0  0  0
   21.3010    2.9156   18.9250 N   0  0  0  0  0  0  0  0  0  0  0  0
   21.9918    3.8589   19.6863 N   0  0  0  0  0  0  0  0  0  0  0  0
   23.3905    3.8135   19.4973 N   0  0  0  0  0  0  0  0  0  0  0  0
   23.7582    4.0797   18.1586 N   0  0  0  0  0  0  0  0  0  0  0  0
   23.3397    5.3888   17.7847 N   0  0  0  0  0  0  0  0  0  0  0  0
   23.9557    6.3633   18.6362 N   0  0  0  0  0  0  0  0  0  0  0  0
   25.4079    6.2574   18.5262 N   0  0  0  0  0  0  0  0  0  0  0  0
   25.7981    6.4910   17.1309 N   0  0  0  0  0  0  0  0  0  0  0  0
   25.3666    7.8113   16.7071 N   0  0  0  0  0  0  0  0  0  0  0  0
   25.9333    8.7848   17.5926 N   0  0  0  0  0  0  0  0  0  0  0  0
   27.3590    8.6498   17.5253 N   0  0  0  0  0  0  0  0  0  0  0  0
   27.7658    8.8494   16.1607 N   0  0  0  0  0  0  0  0  0  0  0  0
   27.3835   10.1481   15.7041 N   0  0  0  0  0  0  0  0  0  0  0  0
   27.9591   11.1523   16.5067 N   0  0  0  0  0  0  0  0  0  0  0  0
   29.3635   11.0601   16.4603 N   0  0  0  0  0  0  0  0  0  0  0  0
   29.7794   11.2240   15.1082 N   0  0  0  0  0  0  0  0  0  0  0  0
   29.3438   12.5208   14.6297 N   0  0  0  0  0  0  0  0  0  0  0  0
   29.9004   13.5940   15.4302 N   0  0  0  0  0  0  0  0  0  0  0  0
   31.3361   13.5615   15.4242 N   0  0  0  0  0  0  0  0  0  0  0  0
   31.7849   13.6933   14.0632 N   0  0  0  0  0  0  0  0  0  0  0  0
   31.2593   14.9466   13.5647 N   0  0  0  0  0  0  0  0  0  0  0  0
   31.7595   15.9984   14.4132 N   0  0  0  0  0  0  0  0  0  0  0  0
   33.1859   15.9346   14.4152 N   0  0  0  0  0  0  0  0  0  0  0  0
   33.6242   16.0744   13.0602 N   0  0  0  0  0  0  0  0  0  0  0  0
   33.1991   17.3557   12.5206 N   0  0  0  0  0  0  0  0  0  0  0  0
   33.6996   18.4559   13.2892 N   0  0  0  0  0  0  0  0  0  0  0  0
   35.1260   18.4833   13.2887 N   0  0  0  0  0  0  0  0  0  0  0  0
   35.6405   18.6463   11.9454 N   0  0  0  0  0  0  0  0  0  0  0  0
   35.1304   19.8447   11.3605 N   0  0  0  0  0  0  0  0  0  0  0  0
   35.5769   20.9422   12.1534 N   0  0  0  0  0  0  0  0  0  0  0  0
   37.0200   20.9299   12.1904 N   0  0  0  0  0  0  0  0  0  0  0  0
   37.5352   21.0128   10.8595 N   0  0  0  0  0  0  0  0  0  0  0  0
   37.0834   22.2326   10.2611 N   0  0  0  0  0  0  0  0  0  0  0  0
   37.4928   23.3458   11.0764 N   0  0  0  0  0  0  0  0  0  0  0  0
   38.9267   23.3440   11.1665 N   0  0  0  0  0  0  0  0  0  0  0  0
   39.4871   23.4362    9.8268 N   0  0  0  0  0  0  0  0  0  0  0  0
   38.9950   24.6540    9.2032 N   0  0  0  0  0  0  0  0  0  0  0  0
   39.3905   25.7692   10.0333 N   0  0  0  0  0  0  0  0  0  0  0  0
   40.8297   25.7834   10.1399 N   0  0  0  0  0  0  0  0  0  0  0  0
   41.4397   25.9121    8.8300 N   0  0  0  0  0  0  0  0  0  0  0  0
   41.0631   27.1425    8.1564 N   0  0  0  0  0  0  0  0  0  0  0  0
   41.4165   28.2781    8.9402 N   0  0  0  0  0  0  0  0  0  0  0  0
   42.8257   28.2737    9.1059 N   0  0  0  0  0  0  0  0  0  0  0  0
   43.4249   28.3479    7.7969 N   0  0  0  0  0  0  0  0  0  0  0  0
   42.9249   29.5118    7.1314 N   0  0  0  0  0  0  0  0  0  0  0  0
   43.2612   30.6601    7.9292 N   0  0  0  0  0  0  0  0  0  0  0  0
   44.7174   30.7200    8.1061 N   0  0  0  0  0  0  0  0  0  0  0  0
   45.3860   30.8240    6.8070 N   0  0  0  0  0  0  0  0  0  0  0  0
   44.8848   31.9951    6.1265 N   0  0  0  0  0  0  0  0  0  0  0  0
   45.1937   33.1682    6.9430 N   0  0  0  0  0  0  0  0  0  0  0  0
   46.6401   33.2234    7.1513 N   0  0  0  0  0  0  0  0  0  0  0  0
   47.2878   33.3195    5.8637 N   0  0  0  0  0  0  0  0  0  0  0  0
   46.8399   34.5088    5.2001 N   0  0  0  0  0  0  0  0  0  0  0  0
   47.1233   35.6576    6.0412 O   0  0  0  0  0  0  0  0  0  0  0  0
   46.6058   36.8392    5.4234 O   0  0  0  0  0  0  0  0  0  0  0  0
   46.9021   38.0198    6.2038 O   0  0  0  0  0  0  0  0  0  0  0  0
   46.3458   39.3322    5.3521 S   0  0  0  0  0  0  0  0  0  0  0  0
   46.7702   40.8412    6.6675 S   0  0  0  0  0  0  0  0  0  0  0  0
   46.1393   42.5463    5.6824 S   0  0  0  0  0  0  0  0  0  0  0  0
   44.0905   42.3779    5.5342 S   0  0  0  0  0  0  0  0  0  0  0  0
   28.8334    1.5878   18.5189 H   0  0  0  0  0  0  0  0  0  0  0  0
   23.0060    0.9806   15.7307 H   0  0  0  0  0  0  0  0  0  0  0  0
   22.6749    1.4553   18.9886 H   0  0  0  0  0  0  0  0  0  0  0  0
   20.3019    3.0465   19.0259 H   0  0  0  0  0  0  0  0  0  0  0  0
   21.7821    3.7613   20.6704 H   0  0  0  0  0  0  0  0  0  0  0  0
   23.7949    2.9407   19.8030 H   0  0  0  0  0  0  0  0  0  0  0  0
   23.2633    3.4478   17.5490 H   0  0  0  0  0  0  0  0  0  0  0  0
   22.3367    5.4331   17.9606 H   0  0  0  0  0  0  0  0  0  0  0  0
   23.6602    6.1041   19.5880 H   0  0  0  0  0  0  0  0  0  0  0  0
   25.5979    5.2644   18.7810 H   0  0  0  0  0  0  0  0  0  0  0  0
   25.2729    5.8217   16.5699 H   0  0  0  0  0  0  0  0  0  0  0  0
   24.3583    7.8447   16.8158 H   0  0  0  0  0  0  0  0  0  0  0  0
   25.5951    8.5402   18.5304 H   0  0  0  0  0  0  0  0  0  0  0  0
   27.6056    7.6973   17.8260 H   0  0  0  0  0  0  0  0  0  0  0  0
   27.3193    8.1692   15.5410 H   0  0  0  0  0  0  0  0  0  0  0  0
   26.3777   10.2714   15.7284 H   0  0  0  0  0  0  0  0  0  0  0  0
   27.6758   11.0501   17.4676 H   0  0  0  0  0  0  0  0  0  0  0  0
   29.6376   10.1332   16.7943 H   0  0  0  0  0  0  0  0  0  0  0  0
   29.2880   10.4917   14.5670 H   0  0  0  0  0  0  0  0  0  0  0  0
   28.3281   12.5531   14.7761 H   0  0  0  0  0  0  0  0  0  0  0  0
   29.5915   13.4032   16.3828 H   0  0  0  0  0  0  0  0  0  0  0  0
   31.5693   12.6290   15.7939 H   0  0  0  0  0  0  0  0  0  0  0  0
   31.3092   12.9122   13.5758 H   0  0  0  0  0  0  0  0  0  0  0  0
   30.2504   14.9065   13.7142 H   0  0  0  0  0  0  0  0  0  0  0  0
   31.4666   15.7850   15.3552 H   0  0  0  0  0  0  0  0  0  0  0  0
   33.4536   15.0121   14.7687 H   0  0  0  0  0  0  0  0  0  0  0  0
   33.2259   15.3146   12.4907 H   0  0  0  0  0  0  0  0  0  0  0  0
   32.1826   17.4400   12.5519 H   0  0  0  0  0  0  0  0  0  0  0  0
   33.3422   18.3811   14.2462 H   0  0  0  0  0  0  0  0  0  0  0  0
   35.4713   17.6101   13.7025 H   0  0  0  0  0  0  0  0  0  0  0  0
   35.2719   17.8923   11.3735 H   0  0  0  0  0  0  0  0  0  0  0  0
   34.1047   19.7794   11.3815 H   0  0  0  0  0  0  0  0  0  0  0  0
   35.2071   20.7484   13.0973 H   0  0  0  0  0  0  0  0  0  0  0  0
   37.3164   20.0205   12.5409 H   0  0  0  0  0  0  0  0  0  0  0  0
   37.1799   20.1921   10.3481 H   0  0  0  0  0  0  0  0  0  0  0  0
   36.0682   22.2261   10.3057 H   0  0  0  0  0  0  0  0  0  0  0  0
   37.0893   23.1626   12.0100 H   0  0  0  0  0  0  0  0  0  0  0  0
   39.1624   22.4174   11.5431 H   0  0  0  0  0  0  0  0  0  0  0  0
   39.0945   22.6184    9.3321 H   0  0  0  0  0  0  0  0  0  0  0  0
   37.9763   24.5770    9.2794 H   0  0  0  0  0  0  0  0  0  0  0  0
   38.9932   25.5584   10.9572 H   0  0  0  0  0  0  0  0  0  0  0  0
   41.1386   24.8869   10.5167 H   0  0  0  0  0  0  0  0  0  0  0  0
   41.1843   25.0867    8.2688 H   0  0  0  0  0  0  0  0  0  0  0  0
   40.0543   27.1740    8.0425 H   0  0  0  0  0  0  0  0  0  0  0  0
   40.9350   28.1773    9.8433 H   0  0  0  0  0  0  0  0  0  0  0  0
   43.0833   27.3823    9.5496 H   0  0  0  0  0  0  0  0  0  0  0  0
   43.0706   27.5591    7.2558 H   0  0  0  0  0  0  0  0  0  0  0  0
   41.8982   29.3814    7.0935 H   0  0  0  0  0  0  0  0  0  0  0  0
   42.8119   30.4998    8.8499 H   0  0  0  0  0  0  0  0  0  0  0  0
   45.0064   29.8318    8.5461 H   0  0  0  0  0  0  0  0  0  0  0  0
   45.0738   30.0072    6.2722 H   0  0  0  0  0  0  0  0  0  0  0  0
   43.8685   31.8502    6.0603 H   0  0  0  0  0  0  0  0  0  0  0  0
   44.7369   33.0185    7.8534 H   0  0  0  0  0  0  0  0  0  0  0  0
   46.9145   32.3366    7.6052 H   0  0  0  0  0  0  0  0  0  0  0  0
   47.0490   32.4822    5.3085 H   0  0  0  0  0  0  0  0  0  0  0  0
   45.8132   34.5550    5.1876 H   0  0  0  0  0  0  0  0  0  0  0  0
   43.7553   43.5142    4.8940 H   0  0  0  0  0  0  0  0  0  0  0  0
  1  2  1  0  0  0  0
  1 70  1  0  0  0  0
  2  3  1  0  0  0  0
  3  4  1  0  0  0  0
  4  5  1  0  0  0  0
  5  6  1  0  0  0  0
  6  7  1  0  0  0  0
  6 71  1  0  0  0  0
  7  8  1  0  0  0  0
  8  9  1  0  0  0  0
  9 10  1  0  0  0  0
  9 72  1  0  0  0  0
 10 11  1  0  0  0  0
 10 73  1  0  0  0  0
 11 12  1  0  0  0  0
 11 74  1  0  0  0  0
 12 13  1  0  0  0  0
 12 75  1  0  0  0  0
 13 14  1  0  0  0  0
 13 76  1  0  0  0  0
 14 15  1  0  0  0  0
 14 77  1  0  0  0  0
 15 16  1  0  0  0  0
 15 78  1  0  0  0  0
 16 17  1  0  0  0  0
 16 79  1  0  0  0  0
 17 18  1  0  0  0  0
 17 80  1  0  0  0  0
 18 19  1  0  0  0  0
 18 81  1  0  0  0  0
 19 20  1  0  0  0  0
 19 82  1  0  0  0  0
 20 21  1  0  0  0  0
 20 83  1  0  0  0  0
 21 22  1  0  0  0  0
 21 84  1  0  0  0  0
 22 23  1  0  0  0  0
 22 85  1  0  0  0  0
 23 24  1  0  0  0  0
 23 86  1  0  0  0  0
 24 25  1  0  0  0  0
 24 87  1  0  0  0  0
 25 26  1  0  0  0  0
 25 88  1  0  0  0  0
 26 27  1  0  0  0  0
 26 89  1  0  0  0  0
 27 28  1  0  0  0  0
 27 90  1  0  0  0  0
 28 29  1  0  0  0  0
 28 91  1  0  0  0  0
 29 30  1  0  0  0  0
 29 92  1  0  0  0  0
 30 31  1  0  0  0  0
 30 93  1  0  0  0  0
 31 32  1  0  0  0  0
 31 94  1  0  0  0  0
 32 33  1  0  0  0  0
 32 95  1  0  0  0  0
 33 34  1  0  0  0  0
 33 96  1  0  0  0  0
 34 35  1  0  0  0  0
 34 97  1  0  0  0  0
 35 36  1  0  0  0  0
 35 98  1  0  0  0  0
 36 37  1  0  0  0  0
 36 99  1  0  0  0  0
 37 38  1  0  0  0  0
 37100  1  0  0  0  0
 38 39  1  0  0  0  0
 38101  1  0  0  0  0
 39 40  1  0  0  0  0
 39102  1  0  0  0  0
 40 41  1  0  0  0  0
 40103  1  0  0  0  0
 41 42  1  0  0  0  0
 41104  1  0  0  0  0
 42 43  1  0  0  0  0
 42105  1  0  0  0  0
 43 44  1  0  0  0  0
 43106  1  0  0  0  0
 44 45  1  0  0  0  0
 44107  1  0  0  0  0
 45 46  1  0  0  0  0
 45108  1  0  0  0  0
 46 47  1  0  0  0  0
 46109  1  0  0  0  0
 47 48  1  0  0  0  0
 47110  1  0  0  0  0
 48 49  1  0  0  0  0
 48111  1  0  0  0  0
 49 50  1  0  0  0  0
 49112  1  0  0  0  0
 50 51  1  0  0  0  0
 50113  1  0  0  0  0
 51 52  1  0  0  0  0
 51114  1  0  0  0  0
 52 53  1  0  0  0  0
 52115  1  0  0  0  0
 53 54  1  0  0  0  0
 53116  1  0  0  0  0
 54 55  1  0  0  0  0
 54117  1  0  0  0  0
 55 56  1  0  0  0  0
 55118  1  0  0  0  0
 56 57  1  0  0  0  0
 56119  1  0  0  0  0
 57 58  1  0  0  0  0
 57120  1  0  0  0  0
 58 59  1  0  0  0  0
 58121  1  0  0  0  0
 59 60  1  0  0  0  0
 59122  1  0  0  0  0
 60 61  1  0  0  0  0
 60123  1  0  0  0  0
 61 62  1  0  0  0  0
 61124  1  0  0  0  0
 62 63  1  0  0  0  0
 62125  1  0  0  0  0
 63 64  1  0  0  0  0
 64 65  1  0  0  0  0
 65 66  1  0  0  0  0
 66 67  1  0  0  0  0
 67 68  1  0  0  0  0
 68 69  1  0  0  0  0
 69126  1  0  0  0  0
M  END
$$$$
