
 OpenBabel04232216403D

201200  0  0  0  0  0  0  0  0999 V2000
    1.5600    0.9888    0.2659 C   0  0  0  0  0  0  0  0  0  0  0  0
    2.4109   -0.0001   -0.0283 C   0  0  0  0  0  0  0  0  0  0  0  0
    3.1856   -0.7243    1.0231 C   0  0  0  0  0  0  0  0  0  0  0  0
    4.6213   -0.5840    0.8028 N   0  0  0  0  0  0  0  0  0  0  0  0
    5.3485   -1.3006    1.8474 C   0  0  0  0  0  0  0  0  0  0  0  0
    6.8450   -1.1574    1.6251 C   0  0  0  0  0  0  0  0  0  0  0  0
    7.6146   -1.8973    2.7063 C   0  0  0  0  0  0  0  0  0  0  0  0
    9.1068   -1.7515    2.4834 C   0  0  0  0  0  0  0  0  0  0  0  0
    9.8719   -2.4898    3.5622 C   0  0  0  0  0  0  0  0  0  0  0  0
   11.3622   -2.3414    3.3389 C   0  0  0  0  0  0  0  0  0  0  0  0
   12.1266   -3.0811    4.4163 C   0  0  0  0  0  0  0  0  0  0  0  0
   13.6167   -2.9310    4.1940 C   0  0  0  0  0  0  0  0  0  0  0  0
   14.3810   -3.6723    5.2703 C   0  0  0  0  0  0  0  0  0  0  0  0
   15.8711   -3.5238    5.0468 C   0  0  0  0  0  0  0  0  0  0  0  0
   16.6354   -4.2652    6.1231 C   0  0  0  0  0  0  0  0  0  0  0  0
   18.1255   -4.1183    5.8985 C   0  0  0  0  0  0  0  0  0  0  0  0
   18.8898   -4.8581    6.9759 C   0  0  0  0  0  0  0  0  0  0  0  0
   20.3798   -4.7096    6.7524 C   0  0  0  0  0  0  0  0  0  0  0  0
   21.1442   -5.4509    7.8287 C   0  0  0  0  0  0  0  0  0  0  0  0
   22.6342   -5.3041    7.6041 C   0  0  0  0  0  0  0  0  0  0  0  0
   23.3986   -6.0438    8.6815 C   0  0  0  0  0  0  0  0  0  0  0  0
   24.8886   -5.8953    8.4581 C   0  0  0  0  0  0  0  0  0  0  0  0
   25.6530   -6.6334    9.5366 C   0  0  0  0  0  0  0  0  0  0  0  0
   27.1430   -6.4832    9.3143 C   0  0  0  0  0  0  0  0  0  0  0  0
   27.9074   -7.2212   10.3928 C   0  0  0  0  0  0  0  0  0  0  0  0
   29.3974   -7.0694   10.1716 C   0  0  0  0  0  0  0  0  0  0  0  0
   30.1618   -7.8075   11.2501 C   0  0  0  0  0  0  0  0  0  0  0  0
   31.6518   -7.6556   11.0289 C   0  0  0  0  0  0  0  0  0  0  0  0
   32.4162   -8.3937   12.1074 C   0  0  0  0  0  0  0  0  0  0  0  0
   33.9063   -8.2419   11.8863 C   0  0  0  0  0  0  0  0  0  0  0  0
   34.6706   -8.9800   12.9648 C   0  0  0  0  0  0  0  0  0  0  0  0
   36.1607   -8.8281   12.7436 C   0  0  0  0  0  0  0  0  0  0  0  0
   36.9250   -9.5679   13.8210 C   0  0  0  0  0  0  0  0  0  0  0  0
   38.4151   -9.4160   13.5998 C   0  0  0  0  0  0  0  0  0  0  0  0
   39.1798  -10.1558   14.6773 C   0  0  0  0  0  0  0  0  0  0  0  0
   40.6704  -10.0041   14.4562 C   0  0  0  0  0  0  0  0  0  0  0  0
   41.4369  -10.7454   15.5323 C   0  0  0  0  0  0  0  0  0  0  0  0
   42.9314  -10.5969   15.3114 C   0  0  0  0  0  0  0  0  0  0  0  0
   43.6927  -11.3451   16.3912 C   0  0  0  0  0  0  0  0  0  0  0  0
   45.1331  -11.1906   16.1698 N   0  0  0  0  0  0  0  0  0  0  0  0
   45.8857  -11.8960   17.2088 C   0  0  0  0  0  0  0  0  0  0  0  0
   47.2976  -11.7855   16.9977 N   0  0  0  0  0  0  0  0  0  0  0  0
   48.0418  -12.4747   18.0377 C   0  0  0  0  0  0  0  0  0  0  0  0
   49.5017  -12.2863   17.7929 N   0  0  0  0  0  0  0  0  0  0  0  0
   50.2174  -13.0283   18.8499 C   0  0  0  0  0  0  0  0  0  0  0  0
   51.6564  -12.9282   18.6728 N   0  0  0  0  0  0  0  0  0  0  0  0
   51.9925  -11.5248   18.7212 N   0  0  0  0  0  0  0  0  0  0  0  0
   53.3721  -11.3060   18.4770 N   0  0  0  0  0  0  0  0  0  0  0  0
   53.7782  -11.8097   17.1884 N   0  0  0  0  0  0  0  0  0  0  0  0
   53.0965  -11.1661   16.1373 N   0  0  0  0  0  0  0  0  0  0  0  0
   53.3707   -9.7617   16.1817 N   0  0  0  0  0  0  0  0  0  0  0  0
   52.6413   -9.0843   15.1868 N   0  0  0  0  0  0  0  0  0  0  0  0
   51.2500   -9.2738   15.3345 N   0  0  0  0  0  0  0  0  0  0  0  0
   50.8587   -8.7671   16.6150 N   0  0  0  0  0  0  0  0  0  0  0  0
   51.1549   -7.3658   16.6915 N   0  0  0  0  0  0  0  0  0  0  0  0
   50.4804   -6.6518   15.6559 N   0  0  0  0  0  0  0  0  0  0  0  0
   49.0886   -6.8520   15.8023 N   0  0  0  0  0  0  0  0  0  0  0  0
   48.6678   -6.3508   17.0824 N   0  0  0  0  0  0  0  0  0  0  0  0
   48.9833   -4.9602   17.2077 N   0  0  0  0  0  0  0  0  0  0  0  0
   48.3232   -4.2411   16.1783 N   0  0  0  0  0  0  0  0  0  0  0  0
   46.9042   -4.4274   16.3097 N   0  0  0  0  0  0  0  0  0  0  0  0
   46.4722   -3.9786   17.5959 N   0  0  0  0  0  0  0  0  0  0  0  0
   46.7732   -2.5848   17.7375 N   0  0  0  0  0  0  0  0  0  0  0  0
   46.1095   -1.8233   16.7277 N   0  0  0  0  0  0  0  0  0  0  0  0
   44.7175   -2.0208   16.8080 N   0  0  0  0  0  0  0  0  0  0  0  0
   44.2446   -1.5665   18.0881 N   0  0  0  0  0  0  0  0  0  0  0  0
   44.5682   -0.1988   18.2881 N   0  0  0  0  0  0  0  0  0  0  0  0
   43.9412    0.5642   17.2783 N   0  0  0  0  0  0  0  0  0  0  0  0
   42.5181    0.3866   17.3261 N   0  0  0  0  0  0  0  0  0  0  0  0
   42.0321    0.7750   18.6088 N   0  0  0  0  0  0  0  0  0  0  0  0
   42.3409    2.1580   18.8263 N   0  0  0  0  0  0  0  0  0  0  0  0
   41.7528    2.9364   17.7879 N   0  0  0  0  0  0  0  0  0  0  0  0
   40.3171    2.7535   17.8209 N   0  0  0  0  0  0  0  0  0  0  0  0
   39.8054    3.1418   19.1072 N   0  0  0  0  0  0  0  0  0  0  0  0
   40.1040    4.5220   19.3373 N   0  0  0  0  0  0  0  0  0  0  0  0
   39.5235    5.3077   18.3073 N   0  0  0  0  0  0  0  0  0  0  0  0
   38.0908    5.1389   18.3136 N   0  0  0  0  0  0  0  0  0  0  0  0
   37.5388    5.5248   19.5734 N   0  0  0  0  0  0  0  0  0  0  0  0
   37.8294    6.8793   19.8293 N   0  0  0  0  0  0  0  0  0  0  0  0
   37.2842    7.6714   18.8082 N   0  0  0  0  0  0  0  0  0  0  0  0
    1.0131    1.5070   -0.5094 H   0  0  0  0  0  0  0  0  0  0  0  0
    1.4208    1.2875    1.2973 H   0  0  0  0  0  0  0  0  0  0  0  0
    2.5492   -0.2952   -1.0630 H   0  0  0  0  0  0  0  0  0  0  0  0
    2.9110   -1.7856    0.9965 H   0  0  0  0  0  0  0  0  0  0  0  0
    2.9204   -0.3309    2.0114 H   0  0  0  0  0  0  0  0  0  0  0  0
    4.8840    0.4017    0.8452 H   0  0  0  0  0  0  0  0  0  0  0  0
    5.0886   -2.3647    1.8322 H   0  0  0  0  0  0  0  0  0  0  0  0
    5.0969   -0.8978    2.8354 H   0  0  0  0  0  0  0  0  0  0  0  0
    7.1264   -0.0986    1.6439 H   0  0  0  0  0  0  0  0  0  0  0  0
    7.1172   -1.5655    0.6455 H   0  0  0  0  0  0  0  0  0  0  0  0
    7.3448   -2.9590    2.6920 H   0  0  0  0  0  0  0  0  0  0  0  0
    7.3509   -1.4940    3.6903 H   0  0  0  0  0  0  0  0  0  0  0  0
    9.3799   -0.6909    2.4996 H   0  0  0  0  0  0  0  0  0  0  0  0
    9.3739   -2.1561    1.5011 H   0  0  0  0  0  0  0  0  0  0  0  0
    9.6010   -3.5511    3.5455 H   0  0  0  0  0  0  0  0  0  0  0  0
    9.6049   -2.0866    4.5451 H   0  0  0  0  0  0  0  0  0  0  0  0
   11.6336   -1.2803    3.3571 H   0  0  0  0  0  0  0  0  0  0  0  0
   11.6293   -2.7434    2.3556 H   0  0  0  0  0  0  0  0  0  0  0  0
   11.8563   -4.1425    4.3971 H   0  0  0  0  0  0  0  0  0  0  0  0
   11.8585   -2.6801    5.3998 H   0  0  0  0  0  0  0  0  0  0  0  0
   13.8872   -1.8697    4.2146 H   0  0  0  0  0  0  0  0  0  0  0  0
   13.8846   -3.3307    3.2100 H   0  0  0  0  0  0  0  0  0  0  0  0
   14.1095   -4.7334    5.2506 H   0  0  0  0  0  0  0  0  0  0  0  0
   14.1142   -3.2716    6.2542 H   0  0  0  0  0  0  0  0  0  0  0  0
   16.1427   -2.4628    5.0665 H   0  0  0  0  0  0  0  0  0  0  0  0
   16.1379   -3.9245    4.0629 H   0  0  0  0  0  0  0  0  0  0  0  0
   16.3628   -5.3260    6.1044 H   0  0  0  0  0  0  0  0  0  0  0  0
   16.3696   -3.8635    7.1069 H   0  0  0  0  0  0  0  0  0  0  0  0
   18.3979   -3.0575    5.9158 H   0  0  0  0  0  0  0  0  0  0  0  0
   18.3914   -4.5213    4.9153 H   0  0  0  0  0  0  0  0  0  0  0  0
   18.6184   -5.9192    6.9577 H   0  0  0  0  0  0  0  0  0  0  0  0
   18.6228   -4.4560    7.9592 H   0  0  0  0  0  0  0  0  0  0  0  0
   20.6514   -3.6485    6.7721 H   0  0  0  0  0  0  0  0  0  0  0  0
   20.6467   -5.1103    5.7685 H   0  0  0  0  0  0  0  0  0  0  0  0
   20.8716   -6.5117    7.8100 H   0  0  0  0  0  0  0  0  0  0  0  0
   20.8784   -5.0492    8.8125 H   0  0  0  0  0  0  0  0  0  0  0  0
   22.9067   -4.2432    7.6214 H   0  0  0  0  0  0  0  0  0  0  0  0
   22.9002   -5.7071    6.6209 H   0  0  0  0  0  0  0  0  0  0  0  0
   23.1272   -7.1049    8.6633 H   0  0  0  0  0  0  0  0  0  0  0  0
   23.1315   -5.6417    9.6648 H   0  0  0  0  0  0  0  0  0  0  0  0
   25.1598   -4.8341    8.4749 H   0  0  0  0  0  0  0  0  0  0  0  0
   25.1559   -6.2986    7.4753 H   0  0  0  0  0  0  0  0  0  0  0  0
   25.3829   -7.6948    9.5189 H   0  0  0  0  0  0  0  0  0  0  0  0
   25.3847   -6.2310   10.5194 H   0  0  0  0  0  0  0  0  0  0  0  0
   27.4131   -5.4217    9.3320 H   0  0  0  0  0  0  0  0  0  0  0  0
   27.4114   -6.8855    8.3314 H   0  0  0  0  0  0  0  0  0  0  0  0
   27.6384   -8.2830   10.3741 H   0  0  0  0  0  0  0  0  0  0  0  0
   27.6380   -6.8198   11.3757 H   0  0  0  0  0  0  0  0  0  0  0  0
   29.6664   -6.0077   10.1903 H   0  0  0  0  0  0  0  0  0  0  0  0
   29.6669   -7.4708    9.1886 H   0  0  0  0  0  0  0  0  0  0  0  0
   29.8928   -8.8692   11.2314 H   0  0  0  0  0  0  0  0  0  0  0  0
   29.8924   -7.4061   12.2331 H   0  0  0  0  0  0  0  0  0  0  0  0
   31.9208   -6.5939   11.0476 H   0  0  0  0  0  0  0  0  0  0  0  0
   31.9213   -8.0570   10.0460 H   0  0  0  0  0  0  0  0  0  0  0  0
   32.1472   -9.4554   12.0888 H   0  0  0  0  0  0  0  0  0  0  0  0
   32.1468   -7.9923   13.0904 H   0  0  0  0  0  0  0  0  0  0  0  0
   34.1753   -7.1802   11.9049 H   0  0  0  0  0  0  0  0  0  0  0  0
   34.1757   -8.6433   10.9033 H   0  0  0  0  0  0  0  0  0  0  0  0
   34.4016  -10.0417   12.9461 H   0  0  0  0  0  0  0  0  0  0  0  0
   34.4012   -8.5786   13.9477 H   0  0  0  0  0  0  0  0  0  0  0  0
   36.4299   -7.7665   12.7637 H   0  0  0  0  0  0  0  0  0  0  0  0
   36.4299   -9.2282   11.7601 H   0  0  0  0  0  0  0  0  0  0  0  0
   36.6558  -10.6295   13.8009 H   0  0  0  0  0  0  0  0  0  0  0  0
   36.6558   -9.1678   14.8045 H   0  0  0  0  0  0  0  0  0  0  0  0
   38.6843   -8.3544   13.6199 H   0  0  0  0  0  0  0  0  0  0  0  0
   38.6843   -9.8161   12.6163 H   0  0  0  0  0  0  0  0  0  0  0  0
   38.9103  -11.2174   14.6571 H   0  0  0  0  0  0  0  0  0  0  0  0
   38.9103   -9.7557   15.6608 H   0  0  0  0  0  0  0  0  0  0  0  0
   40.9391   -8.9424   14.4776 H   0  0  0  0  0  0  0  0  0  0  0  0
   40.9386  -10.4027   13.4719 H   0  0  0  0  0  0  0  0  0  0  0  0
   41.1643  -11.8064   15.5116 H   0  0  0  0  0  0  0  0  0  0  0  0
   41.1668  -10.3456   16.5161 H   0  0  0  0  0  0  0  0  0  0  0  0
   43.1954   -9.5329   15.3289 H   0  0  0  0  0  0  0  0  0  0  0  0
   43.1941  -10.9967   14.3258 H   0  0  0  0  0  0  0  0  0  0  0  0
   43.4215  -12.4010   16.3637 H   0  0  0  0  0  0  0  0  0  0  0  0
   43.4221  -10.9321   17.3700 H   0  0  0  0  0  0  0  0  0  0  0  0
   45.3400  -10.1953   16.1894 H   0  0  0  0  0  0  0  0  0  0  0  0
   45.6105  -12.9592   17.1736 H   0  0  0  0  0  0  0  0  0  0  0  0
   45.6024  -11.5084   18.1932 H   0  0  0  0  0  0  0  0  0  0  0  0
   47.6057  -10.7977   17.0523 H   0  0  0  0  0  0  0  0  0  0  0  0
   47.7821  -13.5367   18.0097 H   0  0  0  0  0  0  0  0  0  0  0  0
   47.7858  -12.0677   19.0218 H   0  0  0  0  0  0  0  0  0  0  0  0
   49.7638  -11.3174   17.8519 H   0  0  0  0  0  0  0  0  0  0  0  0
   49.9719  -14.1002   18.8322 H   0  0  0  0  0  0  0  0  0  0  0  0
   49.9566  -12.6497   19.8479 H   0  0  0  0  0  0  0  0  0  0  0  0
   51.8701  -13.2292   17.7168 H   0  0  0  0  0  0  0  0  0  0  0  0
   51.7360  -11.1395   19.6225 H   0  0  0  0  0  0  0  0  0  0  0  0
   53.8903  -11.7937   19.2228 H   0  0  0  0  0  0  0  0  0  0  0  0
   53.5492  -12.8055   17.1422 H   0  0  0  0  0  0  0  0  0  0  0  0
   52.0797  -11.2714   16.2898 H   0  0  0  0  0  0  0  0  0  0  0  0
   54.3621   -9.6110   16.0664 H   0  0  0  0  0  0  0  0  0  0  0  0
   52.9262   -9.4511   14.2835 H   0  0  0  0  0  0  0  0  0  0  0  0
   51.0536  -10.2827   15.2826 H   0  0  0  0  0  0  0  0  0  0  0  0
   51.3700   -9.3000   17.3387 H   0  0  0  0  0  0  0  0  0  0  0  0
   52.1596   -7.2261   16.5591 H   0  0  0  0  0  0  0  0  0  0  0  0
   50.7556   -7.0175   14.7494 H   0  0  0  0  0  0  0  0  0  0  0  0
   48.8874   -7.8516   15.7257 H   0  0  0  0  0  0  0  0  0  0  0  0
   49.1646   -6.8452   17.8241 H   0  0  0  0  0  0  0  0  0  0  0  0
   49.9853   -4.8237   17.0956 H   0  0  0  0  0  0  0  0  0  0  0  0
   48.6606   -4.5902   15.2751 H   0  0  0  0  0  0  0  0  0  0  0  0
   46.7009   -5.4338   16.2032 H   0  0  0  0  0  0  0  0  0  0  0  0
   46.9461   -4.5046   18.3380 H   0  0  0  0  0  0  0  0  0  0  0  0
   47.7715   -2.4252   17.6479 H   0  0  0  0  0  0  0  0  0  0  0  0
   46.4111   -2.1322   15.8065 H   0  0  0  0  0  0  0  0  0  0  0  0
   44.4997   -3.0057   16.6942 H   0  0  0  0  0  0  0  0  0  0  0  0
   44.7057   -2.1184   18.8108 H   0  0  0  0  0  0  0  0  0  0  0  0
   45.5754   -0.0648   18.2136 H   0  0  0  0  0  0  0  0  0  0  0  0
   44.2708    0.2540   16.3698 H   0  0  0  0  0  0  0  0  0  0  0  0
   42.3166   -0.6013   17.2036 H   0  0  0  0  0  0  0  0  0  0  0  0
   42.4929    0.1799   19.3074 H   0  0  0  0  0  0  0  0  0  0  0  0
   43.3707    2.2631   18.7991 H   0  0  0  0  0  0  0  0  0  0  0  0
   42.1179    2.6505   16.8710 H   0  0  0  0  0  0  0  0  0  0  0  0
   40.1071    1.7618   17.6535 H   0  0  0  0  0  0  0  0  0  0  0  0
   40.2312    2.5632   19.8422 H   0  0  0  0  0  0  0  0  0  0  0  0
   41.1253    4.6700   19.3487 H   0  0  0  0  0  0  0  0  0  0  0  0
   39.8842    5.0614   17.3834 H   0  0  0  0  0  0  0  0  0  0  0  0
   37.8474    4.1685   18.1644 H   0  0  0  0  0  0  0  0  0  0  0  0
   37.9538    4.9726   20.3190 H   0  0  0  0  0  0  0  0  0  0  0  0
   38.8410    7.0216   19.8476 H   0  0  0  0  0  0  0  0  0  0  0  0
   36.2724    7.5459   18.7631 H   0  0  0  0  0  0  0  0  0  0  0  0
   37.6617    7.4181   17.8979 H   0  0  0  0  0  0  0  0  0  0  0  0
  1  2  2  0  0  0  0
  1 81  1  0  0  0  0
  1 82  1  0  0  0  0
  2  3  1  0  0  0  0
  2 83  1  0  0  0  0
  3  4  1  0  0  0  0
  3 84  1  0  0  0  0
  3 85  1  0  0  0  0
  4  5  1  0  0  0  0
  4 86  1  0  0  0  0
  5  6  1  0  0  0  0
  5 87  1  0  0  0  0
  5 88  1  0  0  0  0
  6  7  1  0  0  0  0
  6 89  1  0  0  0  0
  6 90  1  0  0  0  0
  7  8  1  0  0  0  0
  7 91  1  0  0  0  0
  7 92  1  0  0  0  0
  8  9  1  0  0  0  0
  8 93  1  0  0  0  0
  8 94  1  0  0  0  0
  9 10  1  0  0  0  0
  9 95  1  0  0  0  0
  9 96  1  0  0  0  0
 10 11  1  0  0  0  0
 10 97  1  0  0  0  0
 10 98  1  0  0  0  0
 11 12  1  0  0  0  0
 11 99  1  0  0  0  0
 11100  1  0  0  0  0
 12 13  1  0  0  0  0
 12101  1  0  0  0  0
 12102  1  0  0  0  0
 13 14  1  0  0  0  0
 13103  1  0  0  0  0
 13104  1  0  0  0  0
 14 15  1  0  0  0  0
 14105  1  0  0  0  0
 14106  1  0  0  0  0
 15 16  1  0  0  0  0
 15107  1  0  0  0  0
 15108  1  0  0  0  0
 16 17  1  0  0  0  0
 16109  1  0  0  0  0
 16110  1  0  0  0  0
 17 18  1  0  0  0  0
 17111  1  0  0  0  0
 17112  1  0  0  0  0
 18 19  1  0  0  0  0
 18113  1  0  0  0  0
 18114  1  0  0  0  0
 19 20  1  0  0  0  0
 19115  1  0  0  0  0
 19116  1  0  0  0  0
 20 21  1  0  0  0  0
 20117  1  0  0  0  0
 20118  1  0  0  0  0
 21 22  1  0  0  0  0
 21119  1  0  0  0  0
 21120  1  0  0  0  0
 22 23  1  0  0  0  0
 22121  1  0  0  0  0
 22122  1  0  0  0  0
 23 24  1  0  0  0  0
 23123  1  0  0  0  0
 23124  1  0  0  0  0
 24 25  1  0  0  0  0
 24125  1  0  0  0  0
 24126  1  0  0  0  0
 25 26  1  0  0  0  0
 25127  1  0  0  0  0
 25128  1  0  0  0  0
 26 27  1  0  0  0  0
 26129  1  0  0  0  0
 26130  1  0  0  0  0
 27 28  1  0  0  0  0
 27131  1  0  0  0  0
 27132  1  0  0  0  0
 28 29  1  0  0  0  0
 28133  1  0  0  0  0
 28134  1  0  0  0  0
 29 30  1  0  0  0  0
 29135  1  0  0  0  0
 29136  1  0  0  0  0
 30 31  1  0  0  0  0
 30137  1  0  0  0  0
 30138  1  0  0  0  0
 31 32  1  0  0  0  0
 31139  1  0  0  0  0
 31140  1  0  0  0  0
 32 33  1  0  0  0  0
 32141  1  0  0  0  0
 32142  1  0  0  0  0
 33 34  1  0  0  0  0
 33143  1  0  0  0  0
 33144  1  0  0  0  0
 34 35  1  0  0  0  0
 34145  1  0  0  0  0
 34146  1  0  0  0  0
 35 36  1  0  0  0  0
 35147  1  0  0  0  0
 35148  1  0  0  0  0
 36 37  1  0  0  0  0
 36149  1  0  0  0  0
 36150  1  0  0  0  0
 37 38  1  0  0  0  0
 37151  1  0  0  0  0
 37152  1  0  0  0  0
 38 39  1  0  0  0  0
 38153  1  0  0  0  0
 38154  1  0  0  0  0
 39 40  1  0  0  0  0
 39155  1  0  0  0  0
 39156  1  0  0  0  0
 40 41  1  0  0  0  0
 40157  1  0  0  0  0
 41 42  1  0  0  0  0
 41158  1  0  0  0  0
 41159  1  0  0  0  0
 42 43  1  0  0  0  0
 42160  1  0  0  0  0
 43 44  1  0  0  0  0
 43161  1  0  0  0  0
 43162  1  0  0  0  0
 44 45  1  0  0  0  0
 44163  1  0  0  0  0
 45 46  1  0  0  0  0
 45164  1  0  0  0  0
 45165  1  0  0  0  0
 46 47  1  0  0  0  0
 46166  1  0  0  0  0
 47 48  1  0  0  0  0
 47167  1  0  0  0  0
 48 49  1  0  0  0  0
 48168  1  0  0  0  0
 49 50  1  0  0  0  0
 49169  1  0  0  0  0
 50 51  1  0  0  0  0
 50170  1  0  0  0  0
 51 52  1  0  0  0  0
 51171  1  0  0  0  0
 52 53  1  0  0  0  0
 52172  1  0  0  0  0
 53 54  1  0  0  0  0
 53173  1  0  0  0  0
 54 55  1  0  0  0  0
 54174  1  0  0  0  0
 55 56  1  0  0  0  0
 55175  1  0  0  0  0
 56 57  1  0  0  0  0
 56176  1  0  0  0  0
 57 58  1  0  0  0  0
 57177  1  0  0  0  0
 58 59  1  0  0  0  0
 58178  1  0  0  0  0
 59 60  1  0  0  0  0
 59179  1  0  0  0  0
 60 61  1  0  0  0  0
 60180  1  0  0  0  0
 61 62  1  0  0  0  0
 61181  1  0  0  0  0
 62 63  1  0  0  0  0
 62182  1  0  0  0  0
 63 64  1  0  0  0  0
 63183  1  0  0  0  0
 64 65  1  0  0  0  0
 64184  1  0  0  0  0
 65 66  1  0  0  0  0
 65185  1  0  0  0  0
 66 67  1  0  0  0  0
 66186  1  0  0  0  0
 67 68  1  0  0  0  0
 67187  1  0  0  0  0
 68 69  1  0  0  0  0
 68188  1  0  0  0  0
 69 70  1  0  0  0  0
 69189  1  0  0  0  0
 70 71  1  0  0  0  0
 70190  1  0  0  0  0
 71 72  1  0  0  0  0
 71191  1  0  0  0  0
 72 73  1  0  0  0  0
 72192  1  0  0  0  0
 73 74  1  0  0  0  0
 73193  1  0  0  0  0
 74 75  1  0  0  0  0
 74194  1  0  0  0  0
 75 76  1  0  0  0  0
 75195  1  0  0  0  0
 76 77  1  0  0  0  0
 76196  1  0  0  0  0
 77 78  1  0  0  0  0
 77197  1  0  0  0  0
 78 79  1  0  0  0  0
 78198  1  0  0  0  0
 79 80  1  0  0  0  0
 79199  1  0  0  0  0
 80200  1  0  0  0  0
 80201  1  0  0  0  0
M  END
$$$$
