
 OpenBabel04232216523D

 40 41  0  0  0  0  0  0  0  0999 V2000
    2.6353    1.1834    1.6758 C   0  0  0  0  0  0  0  0  0  0  0  0
    2.2904    0.5395    0.3421 C   0  0  0  0  0  0  0  0  0  0  0  0
    2.9333    1.2402   -0.8700 C   0  0  0  0  0  0  0  0  0  0  0  0
    4.4571    1.3183   -0.8565 C   0  0  0  0  0  0  0  0  0  0  0  0
    5.0568    2.5171   -0.8831 C   0  0  0  0  0  0  0  0  0  0  0  0
    6.4860    2.9009   -0.8559 C   0  0  0  0  0  0  0  0  0  0  0  0
    6.7546    4.1080   -0.8523 O   0  0  0  0  0  0  0  0  0  0  0  0
    7.5961    1.9326   -0.8638 C   0  0  0  0  0  0  0  0  0  0  0  0
    7.5901    0.5929   -0.8044 C   0  0  0  0  0  0  0  0  0  0  0  0
    8.9874   -0.0251   -0.8439 C   0  0  0  0  0  0  0  0  0  0  0  0
    9.9861    0.6306   -0.5334 O   0  0  0  0  0  0  0  0  0  0  0  0
    9.1451   -1.4618   -1.2262 C   0  0  0  0  0  0  0  0  0  0  0  0
    8.2396   -2.2736   -2.0028 C   0  0  0  0  0  0  0  0  0  0  0  0
    8.6200   -3.5596   -1.9601 C   0  0  0  0  0  0  0  0  0  0  0  0
    7.9055   -4.7590   -2.4948 C   0  0  0  0  0  0  0  0  0  0  0  0
    6.5361   -4.4541   -3.1002 C   0  0  0  0  0  0  0  0  0  0  0  0
    9.9403   -3.6564   -1.2383 C   0  0  0  0  0  0  0  0  0  0  0  0
   10.1684   -2.2311   -0.8162 C   0  0  0  0  0  0  0  0  0  0  0  0
    6.4215   -0.2428   -0.6551 C   0  0  0  0  0  0  0  0  0  0  0  0
    5.1212    0.0442   -0.7499 C   0  0  0  0  0  0  0  0  0  0  0  0
    2.1179    0.6629    2.4882 H   0  0  0  0  0  0  0  0  0  0  0  0
    2.3249    2.2327    1.6926 H   0  0  0  0  0  0  0  0  0  0  0  0
    3.7084    1.1352    1.8835 H   0  0  0  0  0  0  0  0  0  0  0  0
    1.2018    0.5506    0.2147 H   0  0  0  0  0  0  0  0  0  0  0  0
    2.5748   -0.5210    0.3750 H   0  0  0  0  0  0  0  0  0  0  0  0
    2.4983    2.2460   -0.9419 H   0  0  0  0  0  0  0  0  0  0  0  0
    2.6179    0.7162   -1.7824 H   0  0  0  0  0  0  0  0  0  0  0  0
    4.4281    3.4076   -0.9240 H   0  0  0  0  0  0  0  0  0  0  0  0
    8.5480    2.4617   -0.9376 H   0  0  0  0  0  0  0  0  0  0  0  0
    7.3561   -1.9019   -2.4973 H   0  0  0  0  0  0  0  0  0  0  0  0
    7.7621   -5.4762   -1.6763 H   0  0  0  0  0  0  0  0  0  0  0  0
    8.5303   -5.2452   -3.2494 H   0  0  0  0  0  0  0  0  0  0  0  0
    5.8654   -3.9990   -2.3621 H   0  0  0  0  0  0  0  0  0  0  0  0
    6.0624   -5.3734   -3.4575 H   0  0  0  0  0  0  0  0  0  0  0  0
    6.6228   -3.7694   -3.9509 H   0  0  0  0  0  0  0  0  0  0  0  0
   10.7343   -4.0016   -1.9076 H   0  0  0  0  0  0  0  0  0  0  0  0
    9.8776   -4.3125   -0.3648 H   0  0  0  0  0  0  0  0  0  0  0  0
   11.0046   -1.8962   -0.2182 H   0  0  0  0  0  0  0  0  0  0  0  0
    6.6184   -1.2873   -0.4290 H   0  0  0  0  0  0  0  0  0  0  0  0
    4.4558   -0.8178   -0.6859 H   0  0  0  0  0  0  0  0  0  0  0  0
  1  2  1  0  0  0  0
  1 21  1  0  0  0  0
  1 22  1  0  0  0  0
  1 23  1  0  0  0  0
  2  3  1  0  0  0  0
  2 24  1  0  0  0  0
  2 25  1  0  0  0  0
  3  4  1  0  0  0  0
  3 26  1  0  0  0  0
  3 27  1  0  0  0  0
  4  5  2  0  0  0  0
  4 20  1  0  0  0  0
  5  6  1  0  0  0  0
  5 28  1  0  0  0  0
  6  7  2  0  0  0  0
  6  8  1  0  0  0  0
  8  9  2  0  0  0  0
  8 29  1  0  0  0  0
  9 10  1  0  0  0  0
  9 19  1  0  0  0  0
 10 11  2  0  0  0  0
 10 12  1  0  0  0  0
 12 13  1  0  0  0  0
 12 18  2  0  0  0  0
 13 14  2  0  0  0  0
 13 30  1  0  0  0  0
 14 15  1  0  0  0  0
 14 17  1  0  0  0  0
 15 16  1  0  0  0  0
 15 31  1  0  0  0  0
 15 32  1  0  0  0  0
 16 33  1  0  0  0  0
 16 34  1  0  0  0  0
 16 35  1  0  0  0  0
 17 18  1  0  0  0  0
 17 36  1  0  0  0  0
 17 37  1  0  0  0  0
 18 38  1  0  0  0  0
 19 20  2  0  0  0  0
 19 39  1  0  0  0  0
 20 40  1  0  0  0  0
M  END
$$$$
