
 OpenBabel04232217023D

 83 82  0  0  0  0  0  0  0  0999 V2000
    3.4727    1.3363    0.6261 O   0  0  0  0  0  0  0  0  0  0  0  0
    2.8381   -0.0962    0.0931 S   0  0  0  0  0  0  0  0  0  0  0  0
    3.4235    0.0363   -1.9017 S   0  0  0  0  0  0  0  0  0  0  0  0
    5.4908   -0.0585   -1.9490 S   0  0  0  0  0  0  0  0  0  0  0  0
    6.1429    0.0040   -3.9351 S   0  0  0  0  0  0  0  0  0  0  0  0
    8.2507    0.0040   -3.9109 S   0  0  0  0  0  0  0  0  0  0  0  0
    8.9492    0.0419   -5.8987 S   0  0  0  0  0  0  0  0  0  0  0  0
   11.0597    0.0417   -5.8840 S   0  0  0  0  0  0  0  0  0  0  0  0
   11.7514    0.0802   -7.8780 S   0  0  0  0  0  0  0  0  0  0  0  0
   13.8614    0.0800   -7.8665 S   0  0  0  0  0  0  0  0  0  0  0  0
   14.5523    0.1186   -9.8597 S   0  0  0  0  0  0  0  0  0  0  0  0
   16.6620    0.1183   -9.8468 S   0  0  0  0  0  0  0  0  0  0  0  0
   17.3529    0.1568  -11.8396 S   0  0  0  0  0  0  0  0  0  0  0  0
   19.4623    0.1566  -11.8265 S   0  0  0  0  0  0  0  0  0  0  0  0
   20.1530    0.1951  -13.8192 S   0  0  0  0  0  0  0  0  0  0  0  0
   22.2624    0.1949  -13.8060 S   0  0  0  0  0  0  0  0  0  0  0  0
   22.9530    0.2334  -15.7988 S   0  0  0  0  0  0  0  0  0  0  0  0
   25.0623    0.2331  -15.7855 S   0  0  0  0  0  0  0  0  0  0  0  0
   25.7530    0.2717  -17.7783 S   0  0  0  0  0  0  0  0  0  0  0  0
   27.8623    0.2714  -17.7651 S   0  0  0  0  0  0  0  0  0  0  0  0
   28.5530    0.3100  -19.7578 S   0  0  0  0  0  0  0  0  0  0  0  0
   30.6623    0.3097  -19.7446 S   0  0  0  0  0  0  0  0  0  0  0  0
   31.3530    0.3482  -21.7373 S   0  0  0  0  0  0  0  0  0  0  0  0
   33.4623    0.3480  -21.7241 S   0  0  0  0  0  0  0  0  0  0  0  0
   34.1530    0.3865  -23.7169 S   0  0  0  0  0  0  0  0  0  0  0  0
   36.2623    0.3863  -23.7037 S   0  0  0  0  0  0  0  0  0  0  0  0
   36.9530    0.4248  -25.6964 S   0  0  0  0  0  0  0  0  0  0  0  0
   39.0623    0.4245  -25.6832 S   0  0  0  0  0  0  0  0  0  0  0  0
   39.7529    0.4631  -27.6759 S   0  0  0  0  0  0  0  0  0  0  0  0
   41.8623    0.4628  -27.6627 S   0  0  0  0  0  0  0  0  0  0  0  0
   42.5529    0.5013  -29.6555 S   0  0  0  0  0  0  0  0  0  0  0  0
   44.6623    0.5011  -29.6423 S   0  0  0  0  0  0  0  0  0  0  0  0
   45.3529    0.5396  -31.6350 S   0  0  0  0  0  0  0  0  0  0  0  0
   47.4623    0.5394  -31.6218 S   0  0  0  0  0  0  0  0  0  0  0  0
   48.1529    0.5779  -33.6145 S   0  0  0  0  0  0  0  0  0  0  0  0
   50.2623    0.5777  -33.6013 S   0  0  0  0  0  0  0  0  0  0  0  0
   50.9529    0.6162  -35.5941 S   0  0  0  0  0  0  0  0  0  0  0  0
   53.0623    0.6159  -35.5808 S   0  0  0  0  0  0  0  0  0  0  0  0
   53.7529    0.6545  -37.5736 S   0  0  0  0  0  0  0  0  0  0  0  0
   55.8623    0.6542  -37.5604 S   0  0  0  0  0  0  0  0  0  0  0  0
   56.5529    0.6927  -39.5531 S   0  0  0  0  0  0  0  0  0  0  0  0
   58.6623    0.6925  -39.5399 S   0  0  0  0  0  0  0  0  0  0  0  0
   59.3529    0.7310  -41.5327 S   0  0  0  0  0  0  0  0  0  0  0  0
   61.4622    0.7308  -41.5194 S   0  0  0  0  0  0  0  0  0  0  0  0
   62.1529    0.7693  -43.5122 S   0  0  0  0  0  0  0  0  0  0  0  0
   64.2622    0.7690  -43.4990 S   0  0  0  0  0  0  0  0  0  0  0  0
   64.9529    0.8076  -45.4917 S   0  0  0  0  0  0  0  0  0  0  0  0
   67.0622    0.8073  -45.4785 S   0  0  0  0  0  0  0  0  0  0  0  0
   67.7529    0.8459  -47.4713 S   0  0  0  0  0  0  0  0  0  0  0  0
   69.8622    0.8456  -47.4580 S   0  0  0  0  0  0  0  0  0  0  0  0
   70.5529    0.8841  -49.4508 S   0  0  0  0  0  0  0  0  0  0  0  0
   72.6622    0.8839  -49.4376 S   0  0  0  0  0  0  0  0  0  0  0  0
   73.3529    0.9224  -51.4303 S   0  0  0  0  0  0  0  0  0  0  0  0
   75.4622    0.9222  -51.4171 S   0  0  0  0  0  0  0  0  0  0  0  0
   76.1529    0.9607  -53.4099 S   0  0  0  0  0  0  0  0  0  0  0  0
   78.2622    0.9604  -53.3966 S   0  0  0  0  0  0  0  0  0  0  0  0
   78.9528    0.9990  -55.3894 S   0  0  0  0  0  0  0  0  0  0  0  0
   81.0622    0.9987  -55.3762 S   0  0  0  0  0  0  0  0  0  0  0  0
   81.7528    1.0372  -57.3689 S   0  0  0  0  0  0  0  0  0  0  0  0
   83.8622    1.0370  -57.3557 S   0  0  0  0  0  0  0  0  0  0  0  0
   84.5528    1.0755  -59.3485 S   0  0  0  0  0  0  0  0  0  0  0  0
   86.6622    1.0753  -59.3352 S   0  0  0  0  0  0  0  0  0  0  0  0
   87.3528    1.1138  -61.3280 S   0  0  0  0  0  0  0  0  0  0  0  0
   89.4622    1.1135  -61.3148 S   0  0  0  0  0  0  0  0  0  0  0  0
   90.1528    1.1521  -63.3075 S   0  0  0  0  0  0  0  0  0  0  0  0
   92.2622    1.1518  -63.2943 S   0  0  0  0  0  0  0  0  0  0  0  0
   92.9528    1.1904  -65.2870 S   0  0  0  0  0  0  0  0  0  0  0  0
   95.0622    1.1901  -65.2738 S   0  0  0  0  0  0  0  0  0  0  0  0
   95.7528    1.2286  -67.2666 S   0  0  0  0  0  0  0  0  0  0  0  0
   97.8621    1.2284  -67.2533 S   0  0  0  0  0  0  0  0  0  0  0  0
   98.5527    1.2669  -69.2460 S   0  0  0  0  0  0  0  0  0  0  0  0
  100.6619    1.2667  -69.2327 S   0  0  0  0  0  0  0  0  0  0  0  0
  101.3520    1.3052  -71.2252 S   0  0  0  0  0  0  0  0  0  0  0  0
  103.4605    1.3049  -71.2119 S   0  0  0  0  0  0  0  0  0  0  0  0
  104.1493    1.3436  -73.2034 S   0  0  0  0  0  0  0  0  0  0  0  0
  106.2543    1.3427  -73.1863 S   0  0  0  0  0  0  0  0  0  0  0  0
  106.9380    1.3815  -75.1724 S   0  0  0  0  0  0  0  0  0  0  0  0
  109.0284    1.4069  -75.1361 S   0  0  0  0  0  0  0  0  0  0  0  0
  109.7067    1.3643  -77.1007 S   0  0  0  0  0  0  0  0  0  0  0  0
  111.7800    1.4286  -77.0495 S   0  0  0  0  0  0  0  0  0  0  0  0
  112.3858   -0.3322  -76.1789 S   0  0  0  0  0  0  0  0  0  0  0  0
    3.3109    1.4508    1.6451 H   0  0  0  0  0  0  0  0  0  0  0  0
  113.7276   -0.2143  -76.2019 H   0  0  0  0  0  0  0  0  0  0  0  0
  1  2  1  0  0  0  0
  1 82  1  0  0  0  0
  2  3  1  0  0  0  0
  3  4  1  0  0  0  0
  4  5  1  0  0  0  0
  5  6  1  0  0  0  0
  6  7  1  0  0  0  0
  7  8  1  0  0  0  0
  8  9  1  0  0  0  0
  9 10  1  0  0  0  0
 10 11  1  0  0  0  0
 11 12  1  0  0  0  0
 12 13  1  0  0  0  0
 13 14  1  0  0  0  0
 14 15  1  0  0  0  0
 15 16  1  0  0  0  0
 16 17  1  0  0  0  0
 17 18  1  0  0  0  0
 18 19  1  0  0  0  0
 19 20  1  0  0  0  0
 20 21  1  0  0  0  0
 21 22  1  0  0  0  0
 22 23  1  0  0  0  0
 23 24  1  0  0  0  0
 24 25  1  0  0  0  0
 25 26  1  0  0  0  0
 26 27  1  0  0  0  0
 27 28  1  0  0  0  0
 28 29  1  0  0  0  0
 29 30  1  0  0  0  0
 30 31  1  0  0  0  0
 31 32  1  0  0  0  0
 32 33  1  0  0  0  0
 33 34  1  0  0  0  0
 34 35  1  0  0  0  0
 35 36  1  0  0  0  0
 36 37  1  0  0  0  0
 37 38  1  0  0  0  0
 38 39  1  0  0  0  0
 39 40  1  0  0  0  0
 40 41  1  0  0  0  0
 41 42  1  0  0  0  0
 42 43  1  0  0  0  0
 43 44  1  0  0  0  0
 44 45  1  0  0  0  0
 45 46  1  0  0  0  0
 46 47  1  0  0  0  0
 47 48  1  0  0  0  0
 48 49  1  0  0  0  0
 49 50  1  0  0  0  0
 50 51  1  0  0  0  0
 51 52  1  0  0  0  0
 52 53  1  0  0  0  0
 53 54  1  0  0  0  0
 54 55  1  0  0  0  0
 55 56  1  0  0  0  0
 56 57  1  0  0  0  0
 57 58  1  0  0  0  0
 58 59  1  0  0  0  0
 59 60  1  0  0  0  0
 60 61  1  0  0  0  0
 61 62  1  0  0  0  0
 62 63  1  0  0  0  0
 63 64  1  0  0  0  0
 64 65  1  0  0  0  0
 65 66  1  0  0  0  0
 66 67  1  0  0  0  0
 67 68  1  0  0  0  0
 68 69  1  0  0  0  0
 69 70  1  0  0  0  0
 70 71  1  0  0  0  0
 71 72  1  0  0  0  0
 72 73  1  0  0  0  0
 73 74  1  0  0  0  0
 74 75  1  0  0  0  0
 75 76  1  0  0  0  0
 76 77  1  0  0  0  0
 77 78  1  0  0  0  0
 78 79  1  0  0  0  0
 79 80  1  0  0  0  0
 80 81  1  0  0  0  0
 81 83  1  0  0  0  0
M  END
$$$$
