
 OpenBabel04232216453D

 37 39  0  0  0  0  0  0  0  0999 V2000
    0.9664   -0.0218    0.1013 C   0  0  0  0  0  0  0  0  0  0  0  0
    2.4516    0.1051    0.2807 C   0  0  0  0  0  0  0  0  0  0  0  0
    3.0782    1.2611   -0.3324 C   0  0  0  0  0  0  0  0  0  0  0  0
    3.8829    2.1533    0.2787 C   0  0  0  0  0  0  0  0  0  0  0  0
    4.6069    3.2272   -0.4614 C   0  0  0  0  0  0  0  0  0  0  0  0
    4.1340    2.1007    1.7742 C   0  0  0  0  0  0  0  0  0  0  0  0
    3.6283    3.1425    2.5387 N   0  0  0  0  0  0  0  0  0  0  0  0
    3.7021    3.1356    4.0022 C   0  0  0  0  0  0  0  0  0  0  0  0
    3.0694    4.4244    4.5130 C   0  0  0  0  0  0  0  0  0  0  0  0
    1.7112    4.5381    4.2474 N   0  0  0  0  0  0  0  0  0  0  0  0
    0.8832    4.6262    5.2084 N   0  0  0  0  0  0  0  0  0  0  0  0
    1.3665    4.9243    6.4873 C   0  0  0  0  0  0  0  0  0  0  0  0
    1.6226    6.1560    6.8290 N   0  0  0  0  0  0  0  0  0  0  0  0
    2.0897    6.9220    5.7644 N   0  0  0  0  0  0  0  0  0  0  0  0
    3.2838    6.6294    5.4593 N   0  0  0  0  0  0  0  0  0  0  0  0
    3.7048    5.3008    5.3388 C   0  0  0  0  0  0  0  0  0  0  0  0
    4.5961    4.8060    6.2778 N   0  0  0  0  0  0  0  0  0  0  0  0
    4.1491    3.9837    7.1450 N   0  0  0  0  0  0  0  0  0  0  0  0
    2.9711    4.3792    7.8394 N   0  0  0  0  0  0  0  0  0  0  0  0
    1.8934    3.9473    7.3304 N   0  0  0  0  0  0  0  0  0  0  0  0
    4.8137    1.1616    2.3765 N   0  0  0  0  0  0  0  0  0  0  0  0
    5.3177    0.1083    1.6623 C   0  0  0  0  0  0  0  0  0  0  0  0
    4.6110   -0.8427    1.0281 C   0  0  0  0  0  0  0  0  0  0  0  0
    3.1703   -0.8590    0.8876 C   0  0  0  0  0  0  0  0  0  0  0  0
    0.5669    0.7456   -0.5714 H   0  0  0  0  0  0  0  0  0  0  0  0
    0.4593    0.0862    1.0653 H   0  0  0  0  0  0  0  0  0  0  0  0
    0.7058   -0.9960   -0.3267 H   0  0  0  0  0  0  0  0  0  0  0  0
    2.9075    1.3528   -1.4045 H   0  0  0  0  0  0  0  0  0  0  0  0
    4.5028    3.1129   -1.5460 H   0  0  0  0  0  0  0  0  0  0  0  0
    5.6779    3.1829   -0.2363 H   0  0  0  0  0  0  0  0  0  0  0  0
    4.2303    4.2180   -0.1926 H   0  0  0  0  0  0  0  0  0  0  0  0
    2.7746    3.5465    2.1658 H   0  0  0  0  0  0  0  0  0  0  0  0
    4.7523    3.0726    4.3058 H   0  0  0  0  0  0  0  0  0  0  0  0
    3.1739    2.2692    4.4111 H   0  0  0  0  0  0  0  0  0  0  0  0
    6.4003    0.0108    1.7010 H   0  0  0  0  0  0  0  0  0  0  0  0
    5.1401   -1.6775    0.5766 H   0  0  0  0  0  0  0  0  0  0  0  0
    2.6769   -1.7509    1.2653 H   0  0  0  0  0  0  0  0  0  0  0  0
  1  2  1  0  0  0  0
  1 25  1  0  0  0  0
  1 26  1  0  0  0  0
  1 27  1  0  0  0  0
  2  3  1  0  0  0  0
  2 24  2  0  0  0  0
  3  4  2  0  0  0  0
  3 28  1  0  0  0  0
  4  5  1  0  0  0  0
  4  6  1  0  0  0  0
  5 29  1  0  0  0  0
  5 30  1  0  0  0  0
  5 31  1  0  0  0  0
  6  7  1  0  0  0  0
  6 21  2  0  0  0  0
  7  8  1  0  0  0  0
  7 32  1  0  0  0  0
  8  9  1  0  0  0  0
  8 33  1  0  0  0  0
  8 34  1  0  0  0  0
  9 10  1  0  0  0  0
  9 16  2  0  0  0  0
 10 11  2  0  0  0  0
 11 12  1  0  0  0  0
 12 13  2  0  0  0  0
 12 20  1  0  0  0  0
 13 14  1  0  0  0  0
 14 15  2  0  0  0  0
 15 16  1  0  0  0  0
 16 17  1  0  0  0  0
 17 18  2  3  0  0  0
 18 19  1  0  0  0  0
 19 20  2  3  0  0  0
 21 22  1  0  0  0  0
 22 23  2  0  0  0  0
 22 35  1  0  0  0  0
 23 24  1  0  0  0  0
 23 36  1  0  0  0  0
 24 37  1  0  0  0  0
M  END
$$$$
