
 OpenBabel04232216423D

 46 48  0  0  0  0  0  0  0  0999 V2000
    2.1329    0.1567    0.2795 C   0  0  0  0  0  0  0  0  0  0  0  0
    1.7189   -1.1090    0.2244 C   0  0  0  0  0  0  0  0  0  0  0  0
    2.6060   -2.2129    0.0375 C   0  0  0  0  0  0  0  0  0  0  0  0
    3.3031   -2.3794   -1.1255 C   0  0  0  0  0  0  0  0  0  0  0  0
    3.1800   -1.4649   -2.3084 C   0  0  0  0  0  0  0  0  0  0  0  0
    4.5356   -2.9954   -1.0892 N   0  0  0  0  0  0  0  0  0  0  0  0
    5.5130   -2.1557   -0.4884 C   0  0  0  0  0  0  0  0  0  0  0  0
    6.8030   -2.5178   -1.1397 C   0  0  0  0  0  0  0  0  0  0  0  0
    6.4435   -3.5113   -2.1823 N   0  0  0  0  0  0  0  0  0  0  0  0
    7.1511   -3.2867   -3.3251 N   0  0  0  0  0  0  0  0  0  0  0  0
    8.3621   -3.1213   -3.0121 N   0  0  0  0  0  0  0  0  0  0  0  0
    9.2186   -3.5588   -4.0042 N   0  0  0  0  0  0  0  0  0  0  0  0
    9.0991   -4.8039   -4.1475 N   0  0  0  0  0  0  0  0  0  0  0  0
    8.4928   -4.9710   -5.3725 N   0  0  0  0  0  0  0  0  0  0  0  0
    7.2313   -5.0521   -5.2233 C   0  0  0  0  0  0  0  0  0  0  0  0
    6.4504   -4.4551   -6.1714 N   0  0  0  0  0  0  0  0  0  0  0  0
    6.1802   -5.1416   -7.1938 C   0  0  0  0  0  0  0  0  0  0  0  0
    6.5170   -6.5804   -7.4427 C   0  0  0  0  0  0  0  0  0  0  0  0
    5.3676   -7.1461   -7.7613 C   0  0  0  0  0  0  0  0  0  0  0  0
    4.6470   -7.8695   -6.7366 C   0  0  0  0  0  0  0  0  0  0  0  0
    4.2254   -7.4158   -5.5174 C   0  0  0  0  0  0  0  0  0  0  0  0
    4.2160   -6.1115   -4.9286 N   0  0  0  0  0  0  0  0  0  0  0  0
    4.6156   -5.9088   -3.6489 C   0  0  0  0  0  0  0  0  0  0  0  0
    4.3203   -4.7738   -2.8434 N   0  0  0  0  0  0  0  0  0  0  0  0
    5.0633   -3.8936   -2.1666 C   0  0  0  0  0  0  0  0  0  0  0  0
    5.5621   -0.9676    0.1933 C   0  0  0  0  0  0  0  0  0  0  0  0
    4.7372    0.2297    0.3722 C   0  0  0  0  0  0  0  0  0  0  0  0
    3.4757    0.6861    0.2874 C   0  0  0  0  0  0  0  0  0  0  0  0
    1.3692    0.9222    0.3799 H   0  0  0  0  0  0  0  0  0  0  0  0
    0.6601   -1.3459    0.3077 H   0  0  0  0  0  0  0  0  0  0  0  0
    2.9157   -2.7131    0.9617 H   0  0  0  0  0  0  0  0  0  0  0  0
    2.2432   -1.6131   -2.8558 H   0  0  0  0  0  0  0  0  0  0  0  0
    3.2832   -0.4254   -2.0221 H   0  0  0  0  0  0  0  0  0  0  0  0
    4.0194   -1.6152   -2.9945 H   0  0  0  0  0  0  0  0  0  0  0  0
    7.5603   -2.9085   -0.4564 H   0  0  0  0  0  0  0  0  0  0  0  0
    7.1833   -1.5938   -1.6129 H   0  0  0  0  0  0  0  0  0  0  0  0
    6.7700   -5.3997   -4.2659 H   0  0  0  0  0  0  0  0  0  0  0  0
    5.4756   -4.6828   -7.9407 H   0  0  0  0  0  0  0  0  0  0  0  0
    7.1594   -7.0092   -6.6703 H   0  0  0  0  0  0  0  0  0  0  0  0
    4.7508   -6.7686   -8.5792 H   0  0  0  0  0  0  0  0  0  0  0  0
    4.4218   -8.9025   -7.0539 H   0  0  0  0  0  0  0  0  0  0  0  0
    3.6285   -8.1591   -4.9882 H   0  0  0  0  0  0  0  0  0  0  0  0
    5.0428   -6.7854   -3.1439 H   0  0  0  0  0  0  0  0  0  0  0  0
    6.5772   -0.6261    0.3796 H   0  0  0  0  0  0  0  0  0  0  0  0
    5.4259    1.0701    0.5714 H   0  0  0  0  0  0  0  0  0  0  0  0
    3.4356    1.7738    0.1109 H   0  0  0  0  0  0  0  0  0  0  0  0
  1  2  2  0  0  0  0
  1 28  1  0  0  0  0
  1 29  1  0  0  0  0
  2  3  1  0  0  0  0
  2 30  1  0  0  0  0
  3  4  2  0  0  0  0
  3 31  1  0  0  0  0
  4  5  1  0  0  0  0
  4  6  1  0  0  0  0
  5 32  1  0  0  0  0
  5 33  1  0  0  0  0
  5 34  1  0  0  0  0
  6  7  1  0  0  0  0
  6 25  1  0  0  0  0
  7  8  1  0  0  0  0
  7 26  2  0  0  0  0
  8  9  1  0  0  0  0
  8 35  1  0  0  0  0
  8 36  1  0  0  0  0
  9 10  1  0  0  0  0
  9 25  1  0  0  0  0
 10 11  2  3  0  0  0
 11 12  1  0  0  0  0
 12 13  2  3  0  0  0
 13 14  1  0  0  0  0
 14 15  2  3  0  0  0
 15 16  1  0  0  0  0
 15 37  1  0  0  0  0
 16 17  2  3  0  0  0
 17 18  1  0  0  0  0
 17 38  1  0  0  0  0
 18 19  2  3  0  0  0
 18 39  1  0  0  0  0
 19 20  1  0  0  0  0
 19 40  1  0  0  0  0
 20 21  2  3  0  0  0
 20 41  1  0  0  0  0
 21 22  1  0  0  0  0
 21 42  1  0  0  0  0
 22 23  2  3  0  0  0
 23 24  1  0  0  0  0
 23 43  1  0  0  0  0
 24 25  2  3  0  0  0
 26 27  1  0  0  0  0
 26 44  1  0  0  0  0
 27 28  2  0  0  0  0
 27 45  1  0  0  0  0
 28 46  1  0  0  0  0
M  END
$$$$
