
 OpenBabel04232216453D

 63 64  0  0  0  0  0  0  0  0999 V2000
    7.2128    0.1721    3.2071 C   0  0  0  0  0  0  0  0  0  0  0  0
    8.0451    1.3496    2.5597 C   0  0  0  0  0  0  0  0  0  0  0  0
    6.9156    2.1160    1.7923 C   0  0  0  0  0  0  0  0  0  0  0  0
    6.1320    1.9630    0.6945 C   0  0  0  0  0  0  0  0  0  0  0  0
    6.2096    0.8775   -0.3455 C   0  0  0  0  0  0  0  0  0  0  0  0
    5.6051    3.3444    0.1387 C   0  0  0  0  0  0  0  0  0  0  0  0
    6.8700    4.1383    0.3893 C   0  0  0  0  0  0  0  0  0  0  0  0
    7.4341    5.4265   -0.1309 C   0  0  0  0  0  0  0  0  0  0  0  0
    8.9213    5.0412   -0.3782 C   0  0  0  0  0  0  0  0  0  0  0  0
    9.9846    6.0017    0.1514 C   0  0  0  0  0  0  0  0  0  0  0  0
   11.2285    5.1459    0.3159 C   0  0  0  0  0  0  0  0  0  0  0  0
   12.0514    5.0562   -0.6170 O   0  0  0  0  0  0  0  0  0  0  0  0
   11.0628    4.3299    1.4627 N   0  0  0  0  0  0  0  0  0  0  0  0
   11.1808    2.9536    1.5548 C   0  0  0  0  0  0  0  0  0  0  0  0
   10.5387    2.5118    2.7091 C   0  0  0  0  0  0  0  0  0  0  0  0
   11.2287    3.0386    3.9326 N   0  0  0  0  0  0  0  0  0  0  0  0
   12.1646    4.2504    4.2209 C   0  0  0  0  0  0  0  0  0  0  0  0
   13.7298    4.4925    3.9725 C   0  0  0  0  0  0  0  0  0  0  0  0
   14.9528    3.9266    4.7951 C   0  0  0  0  0  0  0  0  0  0  0  0
   16.3417    3.7827    4.0673 C   0  0  0  0  0  0  0  0  0  0  0  0
   16.7586    2.3436    3.7167 C   0  0  0  0  0  0  0  0  0  0  0  0
   16.2555    1.8751    2.3502 C   0  0  0  0  0  0  0  0  0  0  0  0
   14.7129    1.7348    2.2742 C   0  0  0  0  0  0  0  0  0  0  0  0
   14.0775    2.6743    1.2469 C   0  0  0  0  0  0  0  0  0  0  0  0
   12.5573    2.4494    0.8667 C   0  0  0  0  0  0  0  0  0  0  0  0
    9.3417    1.5584    2.8574 N   0  0  0  0  0  0  0  0  0  0  0  0
    6.4013    0.6031    3.8314 H   0  0  0  0  0  0  0  0  0  0  0  0
    7.7692   -0.5292    3.8141 H   0  0  0  0  0  0  0  0  0  0  0  0
    6.6540   -0.3791    2.4288 H   0  0  0  0  0  0  0  0  0  0  0  0
    6.4480    2.7978    2.5469 H   0  0  0  0  0  0  0  0  0  0  0  0
    5.2190    0.4694   -0.5659 H   0  0  0  0  0  0  0  0  0  0  0  0
    6.8442    0.0559   -0.0216 H   0  0  0  0  0  0  0  0  0  0  0  0
    6.6229    1.2603   -1.2913 H   0  0  0  0  0  0  0  0  0  0  0  0
    4.7196    3.7198    0.6589 H   0  0  0  0  0  0  0  0  0  0  0  0
    5.3898    3.2878   -0.9356 H   0  0  0  0  0  0  0  0  0  0  0  0
    7.5922    3.3868    0.0182 H   0  0  0  0  0  0  0  0  0  0  0  0
    6.9872    4.2858    1.4691 H   0  0  0  0  0  0  0  0  0  0  0  0
    7.3804    6.1686    0.6752 H   0  0  0  0  0  0  0  0  0  0  0  0
    6.9548    5.7599   -1.0202 H   0  0  0  0  0  0  0  0  0  0  0  0
    9.0712    4.7969   -1.4375 H   0  0  0  0  0  0  0  0  0  0  0  0
    9.1615    4.0759    0.1118 H   0  0  0  0  0  0  0  0  0  0  0  0
    9.7003    6.3851    1.1427 H   0  0  0  0  0  0  0  0  0  0  0  0
   10.1586    6.8344   -0.5296 H   0  0  0  0  0  0  0  0  0  0  0  0
   10.3994    4.7143    2.1359 H   0  0  0  0  0  0  0  0  0  0  0  0
   10.4620    3.0872    4.6080 H   0  0  0  0  0  0  0  0  0  0  0  0
   12.0491    4.4275    5.2974 H   0  0  0  0  0  0  0  0  0  0  0  0
   11.6883    5.1237    3.7578 H   0  0  0  0  0  0  0  0  0  0  0  0
   13.8109    5.5585    4.2654 H   0  0  0  0  0  0  0  0  0  0  0  0
   13.9713    4.6018    2.9271 H   0  0  0  0  0  0  0  0  0  0  0  0
   14.7103    3.0088    5.3326 H   0  0  0  0  0  0  0  0  0  0  0  0
   15.1695    4.6785    5.5736 H   0  0  0  0  0  0  0  0  0  0  0  0
   17.1257    4.1362    4.7616 H   0  0  0  0  0  0  0  0  0  0  0  0
   16.4373    4.4367    3.1907 H   0  0  0  0  0  0  0  0  0  0  0  0
   16.4402    1.6483    4.5012 H   0  0  0  0  0  0  0  0  0  0  0  0
   17.8591    2.2807    3.7029 H   0  0  0  0  0  0  0  0  0  0  0  0
   16.7047    0.8898    2.1573 H   0  0  0  0  0  0  0  0  0  0  0  0
   16.6594    2.5360    1.5713 H   0  0  0  0  0  0  0  0  0  0  0  0
   14.2658    1.8635    3.2594 H   0  0  0  0  0  0  0  0  0  0  0  0
   14.5013    0.7101    1.9631 H   0  0  0  0  0  0  0  0  0  0  0  0
   14.6511    2.5102    0.3184 H   0  0  0  0  0  0  0  0  0  0  0  0
   14.3095    3.7210    1.4315 H   0  0  0  0  0  0  0  0  0  0  0  0
   12.4439    1.4345    0.4763 H   0  0  0  0  0  0  0  0  0  0  0  0
   12.5767    3.0192   -0.0648 H   0  0  0  0  0  0  0  0  0  0  0  0
  1  2  1  0  0  0  0
  1 27  1  0  0  0  0
  1 28  1  0  0  0  0
  1 29  1  0  0  0  0
  2  3  1  0  0  0  0
  2 26  2  3  0  0  0
  3  4  2  3  0  0  0
  3 30  1  0  0  0  0
  4  5  1  0  0  0  0
  4  6  1  0  0  0  0
  5 31  1  0  0  0  0
  5 32  1  0  0  0  0
  5 33  1  0  0  0  0
  6  7  1  0  0  0  0
  6 34  1  0  0  0  0
  6 35  1  0  0  0  0
  7  8  1  0  0  0  0
  7 36  1  0  0  0  0
  7 37  1  0  0  0  0
  8  9  1  0  0  0  0
  8 38  1  0  0  0  0
  8 39  1  0  0  0  0
  9 10  1  0  0  0  0
  9 40  1  0  0  0  0
  9 41  1  0  0  0  0
 10 11  1  0  0  0  0
 10 42  1  0  0  0  0
 10 43  1  0  0  0  0
 11 12  2  0  0  0  0
 11 13  1  0  0  0  0
 13 14  1  0  0  0  0
 13 44  1  0  0  0  0
 14 15  2  3  0  0  0
 14 25  1  0  0  0  0
 15 16  1  0  0  0  0
 15 26  1  0  0  0  0
 16 17  1  0  0  0  0
 16 45  1  0  0  0  0
 17 18  1  0  0  0  0
 17 46  1  0  0  0  0
 17 47  1  0  0  0  0
 18 19  1  0  0  0  0
 18 48  1  0  0  0  0
 18 49  1  0  0  0  0
 19 20  1  0  0  0  0
 19 50  1  0  0  0  0
 19 51  1  0  0  0  0
 20 21  1  0  0  0  0
 20 52  1  0  0  0  0
 20 53  1  0  0  0  0
 21 22  1  0  0  0  0
 21 54  1  0  0  0  0
 21 55  1  0  0  0  0
 22 23  1  0  0  0  0
 22 56  1  0  0  0  0
 22 57  1  0  0  0  0
 23 24  1  0  0  0  0
 23 58  1  0  0  0  0
 23 59  1  0  0  0  0
 24 25  1  0  0  0  0
 24 60  1  0  0  0  0
 24 61  1  0  0  0  0
 25 62  1  0  0  0  0
 25 63  1  0  0  0  0
M  END
$$$$
