
 OpenBabel04232216483D

 90 90  0  0  0  0  0  0  0  0999 V2000
    1.7206    1.7618    0.9880 C   0  0  0  0  0  0  0  0  0  0  0  0
    2.8782    0.9447    0.5004 C   0  0  0  0  0  0  0  0  0  0  0  0
    3.9898    0.9230    1.2319 C   0  0  0  0  0  0  0  0  0  0  0  0
    5.2123    0.2310    0.9635 C   0  0  0  0  0  0  0  0  0  0  0  0
    5.5661   -0.5678   -0.0504 C   0  0  0  0  0  0  0  0  0  0  0  0
    6.9600   -1.1728   -0.0609 C   0  0  0  0  0  0  0  0  0  0  0  0
    6.9296   -2.6960   -0.0522 C   0  0  0  0  0  0  0  0  0  0  0  0
    8.3156   -3.3099   -0.0499 C   0  0  0  0  0  0  0  0  0  0  0  0
    8.1883   -4.8279   -0.0450 C   0  0  0  0  0  0  0  0  0  0  0  0
    9.5679   -5.4509   -0.0437 C   0  0  0  0  0  0  0  0  0  0  0  0
    9.4570   -6.9621   -0.0388 C   0  0  0  0  0  0  0  0  0  0  0  0
   10.8447   -7.5727   -0.0394 C   0  0  0  0  0  0  0  0  0  0  0  0
   10.7409   -9.0850   -0.0365 C   0  0  0  0  0  0  0  0  0  0  0  0
   12.1290   -9.6955   -0.0352 C   0  0  0  0  0  0  0  0  0  0  0  0
   12.0254  -11.2083   -0.0343 C   0  0  0  0  0  0  0  0  0  0  0  0
   13.4133  -11.8193   -0.0310 C   0  0  0  0  0  0  0  0  0  0  0  0
   13.3097  -13.3322   -0.0321 C   0  0  0  0  0  0  0  0  0  0  0  0
   14.6977  -13.9432   -0.0307 C   0  0  0  0  0  0  0  0  0  0  0  0
   14.5941  -15.4561   -0.0319 C   0  0  0  0  0  0  0  0  0  0  0  0
   15.9821  -16.0671   -0.0306 C   0  0  0  0  0  0  0  0  0  0  0  0
   15.8788  -17.5802   -0.0317 C   0  0  0  0  0  0  0  0  0  0  0  0
   17.2668  -18.1914   -0.0303 C   0  0  0  0  0  0  0  0  0  0  0  0
   17.1636  -19.7047   -0.0315 C   0  0  0  0  0  0  0  0  0  0  0  0
   18.5519  -20.3166   -0.0281 C   0  0  0  0  0  0  0  0  0  0  0  0
   18.4501  -21.8308   -0.0312 C   0  0  0  0  0  0  0  0  0  0  0  0
   19.8391  -22.4444   -0.0279 C   0  0  0  0  0  0  0  0  0  0  0  0
   19.7382  -23.9600   -0.0310 C   0  0  0  0  0  0  0  0  0  0  0  0
   21.1249  -24.5812   -0.0257 C   0  0  0  0  0  0  0  0  0  0  0  0
   21.0244  -26.0980   -0.0288 C   0  0  0  0  0  0  0  0  0  0  0  0
   22.4010  -26.7210   -0.0216 C   0  0  0  0  0  0  0  0  0  0  0  0
   23.4331  -26.0745   -0.0128 O   0  0  0  0  0  0  0  0  0  0  0  0
    4.8097   -0.9356   -1.1486 O   0  0  0  0  0  0  0  0  0  0  0  0
    3.5270   -0.5473   -1.4093 C   0  0  0  0  0  0  0  0  0  0  0  0
    2.6778    0.2441   -0.7448 C   0  0  0  0  0  0  0  0  0  0  0  0
    1.9546    2.2620    1.9352 H   0  0  0  0  0  0  0  0  0  0  0  0
    0.8533    1.1187    1.1592 H   0  0  0  0  0  0  0  0  0  0  0  0
    1.4719    2.5371    0.2580 H   0  0  0  0  0  0  0  0  0  0  0  0
    4.0215    1.4980    2.1590 H   0  0  0  0  0  0  0  0  0  0  0  0
    5.9312    0.4361    1.7610 H   0  0  0  0  0  0  0  0  0  0  0  0
    7.5232   -0.8236    0.8145 H   0  0  0  0  0  0  0  0  0  0  0  0
    7.5050   -0.8227   -0.9456 H   0  0  0  0  0  0  0  0  0  0  0  0
    6.3982   -3.0700   -0.9364 H   0  0  0  0  0  0  0  0  0  0  0  0
    6.3983   -3.0591    0.8398 H   0  0  0  0  0  0  0  0  0  0  0  0
    8.8728   -2.9801    0.8363 H   0  0  0  0  0  0  0  0  0  0  0  0
    8.8720   -2.9858   -0.9389 H   0  0  0  0  0  0  0  0  0  0  0  0
    7.6252   -5.1646   -0.9253 H   0  0  0  0  0  0  0  0  0  0  0  0
    7.6260   -5.1589    0.8379 H   0  0  0  0  0  0  0  0  0  0  0  0
   10.1242   -5.1129    0.8388 H   0  0  0  0  0  0  0  0  0  0  0  0
   10.1233   -5.1186   -0.9289 H   0  0  0  0  0  0  0  0  0  0  0  0
    8.8982   -7.3000   -0.9202 H   0  0  0  0  0  0  0  0  0  0  0  0
    8.9015   -7.2944    0.8468 H   0  0  0  0  0  0  0  0  0  0  0  0
   11.4022   -7.2339    0.8426 H   0  0  0  0  0  0  0  0  0  0  0  0
   11.3999   -7.2372   -0.9241 H   0  0  0  0  0  0  0  0  0  0  0  0
   10.1844   -9.4228   -0.9194 H   0  0  0  0  0  0  0  0  0  0  0  0
   10.1843   -9.4195    0.8475 H   0  0  0  0  0  0  0  0  0  0  0  0
   12.6847   -9.3581    0.8484 H   0  0  0  0  0  0  0  0  0  0  0  0
   12.6859   -9.3593   -0.9185 H   0  0  0  0  0  0  0  0  0  0  0  0
   11.4707  -11.5454   -0.9186 H   0  0  0  0  0  0  0  0  0  0  0  0
   11.4671  -11.5442    0.8482 H   0  0  0  0  0  0  0  0  0  0  0  0
   13.9675  -11.4832    0.8541 H   0  0  0  0  0  0  0  0  0  0  0  0
   13.9721  -11.4822   -0.9127 H   0  0  0  0  0  0  0  0  0  0  0  0
   12.7543  -13.6682   -0.9164 H   0  0  0  0  0  0  0  0  0  0  0  0
   12.7521  -13.6693    0.8504 H   0  0  0  0  0  0  0  0  0  0  0  0
   15.2531  -13.6071    0.8535 H   0  0  0  0  0  0  0  0  0  0  0  0
   15.2553  -13.6060   -0.9132 H   0  0  0  0  0  0  0  0  0  0  0  0
   14.0387  -15.7920   -0.9162 H   0  0  0  0  0  0  0  0  0  0  0  0
   14.0365  -15.7932    0.8506 H   0  0  0  0  0  0  0  0  0  0  0  0
   16.5375  -15.7311    0.8538 H   0  0  0  0  0  0  0  0  0  0  0  0
   16.5397  -15.7299   -0.9130 H   0  0  0  0  0  0  0  0  0  0  0  0
   15.3233  -17.9160   -0.9160 H   0  0  0  0  0  0  0  0  0  0  0  0
   15.3211  -17.9172    0.8508 H   0  0  0  0  0  0  0  0  0  0  0  0
   17.8221  -17.8552    0.8540 H   0  0  0  0  0  0  0  0  0  0  0  0
   17.8243  -17.8540   -0.9128 H   0  0  0  0  0  0  0  0  0  0  0  0
   16.6092  -20.0403   -0.9165 H   0  0  0  0  0  0  0  0  0  0  0  0
   16.6045  -20.0414    0.8503 H   0  0  0  0  0  0  0  0  0  0  0  0
   19.1051  -19.9809    0.8577 H   0  0  0  0  0  0  0  0  0  0  0  0
   19.1108  -19.9777   -0.9091 H   0  0  0  0  0  0  0  0  0  0  0  0
   17.8956  -22.1646   -0.9170 H   0  0  0  0  0  0  0  0  0  0  0  0
   17.8898  -22.1679    0.8496 H   0  0  0  0  0  0  0  0  0  0  0  0
   20.3916  -22.1076    0.8579 H   0  0  0  0  0  0  0  0  0  0  0  0
   20.3973  -22.1044   -0.9089 H   0  0  0  0  0  0  0  0  0  0  0  0
   19.1847  -24.2923   -0.9172 H   0  0  0  0  0  0  0  0  0  0  0  0
   19.1766  -24.2955    0.8488 H   0  0  0  0  0  0  0  0  0  0  0  0
   21.6815  -24.2437    0.8579 H   0  0  0  0  0  0  0  0  0  0  0  0
   21.6897  -24.2406   -0.9029 H   0  0  0  0  0  0  0  0  0  0  0  0
   20.4939  -26.4421   -0.9229 H   0  0  0  0  0  0  0  0  0  0  0  0
   20.4832  -26.4451    0.8576 H   0  0  0  0  0  0  0  0  0  0  0  0
   22.4258  -27.8236   -0.0246 H   0  0  0  0  0  0  0  0  0  0  0  0
    3.2140   -1.0051   -2.3434 H   0  0  0  0  0  0  0  0  0  0  0  0
    1.6975    0.3840   -1.1953 H   0  0  0  0  0  0  0  0  0  0  0  0
  1  2  1  0  0  0  0
  1 35  1  0  0  0  0
  1 36  1  0  0  0  0
  1 37  1  0  0  0  0
  2  3  2  0  0  0  0
  2 34  1  0  0  0  0
  3  4  1  0  0  0  0
  3 38  1  0  0  0  0
  4  5  2  0  0  0  0
  4 39  1  0  0  0  0
  5  6  1  0  0  0  0
  5 32  1  0  0  0  0
  6  7  1  0  0  0  0
  6 40  1  0  0  0  0
  6 41  1  0  0  0  0
  7  8  1  0  0  0  0
  7 42  1  0  0  0  0
  7 43  1  0  0  0  0
  8  9  1  0  0  0  0
  8 44  1  0  0  0  0
  8 45  1  0  0  0  0
  9 10  1  0  0  0  0
  9 46  1  0  0  0  0
  9 47  1  0  0  0  0
 10 11  1  0  0  0  0
 10 48  1  0  0  0  0
 10 49  1  0  0  0  0
 11 12  1  0  0  0  0
 11 50  1  0  0  0  0
 11 51  1  0  0  0  0
 12 13  1  0  0  0  0
 12 52  1  0  0  0  0
 12 53  1  0  0  0  0
 13 14  1  0  0  0  0
 13 54  1  0  0  0  0
 13 55  1  0  0  0  0
 14 15  1  0  0  0  0
 14 56  1  0  0  0  0
 14 57  1  0  0  0  0
 15 16  1  0  0  0  0
 15 58  1  0  0  0  0
 15 59  1  0  0  0  0
 16 17  1  0  0  0  0
 16 60  1  0  0  0  0
 16 61  1  0  0  0  0
 17 18  1  0  0  0  0
 17 62  1  0  0  0  0
 17 63  1  0  0  0  0
 18 19  1  0  0  0  0
 18 64  1  0  0  0  0
 18 65  1  0  0  0  0
 19 20  1  0  0  0  0
 19 66  1  0  0  0  0
 19 67  1  0  0  0  0
 20 21  1  0  0  0  0
 20 68  1  0  0  0  0
 20 69  1  0  0  0  0
 21 22  1  0  0  0  0
 21 70  1  0  0  0  0
 21 71  1  0  0  0  0
 22 23  1  0  0  0  0
 22 72  1  0  0  0  0
 22 73  1  0  0  0  0
 23 24  1  0  0  0  0
 23 74  1  0  0  0  0
 23 75  1  0  0  0  0
 24 25  1  0  0  0  0
 24 76  1  0  0  0  0
 24 77  1  0  0  0  0
 25 26  1  0  0  0  0
 25 78  1  0  0  0  0
 25 79  1  0  0  0  0
 26 27  1  0  0  0  0
 26 80  1  0  0  0  0
 26 81  1  0  0  0  0
 27 28  1  0  0  0  0
 27 82  1  0  0  0  0
 27 83  1  0  0  0  0
 28 29  1  0  0  0  0
 28 84  1  0  0  0  0
 28 85  1  0  0  0  0
 29 30  1  0  0  0  0
 29 86  1  0  0  0  0
 29 87  1  0  0  0  0
 30 31  2  0  0  0  0
 30 88  1  0  0  0  0
 32 33  1  0  0  0  0
 33 34  2  0  0  0  0
 33 89  1  0  0  0  0
 34 90  1  0  0  0  0
M  END
$$$$
