
 OpenBabel04232216503D

 64 64  0  0  0  0  0  0  0  0999 V2000
    9.1478   -7.3719    3.7219 C   0  0  0  0  0  0  0  0  0  0  0  0
   11.1125   -7.4518    3.9538 C   0  0  0  0  0  0  0  0  0  0  0  0
   10.2385   -6.1564    2.9549 C   0  0  0  0  0  0  0  0  0  0  0  0
    8.5001   -5.1290    2.4795 C   0  0  0  0  0  0  0  0  0  0  0  0
    7.3444   -3.7655    2.5056 C   0  0  0  0  0  0  0  0  0  0  0  0
    7.5804   -2.0574    1.6403 C   0  0  0  0  0  0  0  0  0  0  0  0
    8.7552   -2.5873    2.2337 C   0  0  0  0  0  0  0  0  0  0  0  0
   10.1508   -2.6212    2.5138 C   0  0  0  0  0  0  0  0  0  0  0  0
   10.4722   -3.4632    3.7678 C   0  0  0  0  0  0  0  0  0  0  0  0
   11.7225   -3.8321    3.9214 C   0  0  0  0  0  0  0  0  0  0  0  0
   11.9925   -4.8946    4.8264 C   0  0  0  0  0  0  0  0  0  0  0  0
   13.2028   -5.3872    4.8711 C   0  0  0  0  0  0  0  0  0  0  0  0
   13.4876   -6.3652    5.8346 C   0  0  0  0  0  0  0  0  0  0  0  0
   14.7194   -6.7919    5.7175 C   0  0  0  0  0  0  0  0  0  0  0  0
   14.9679   -7.7389    6.6936 C   0  0  0  0  0  0  0  0  0  0  0  0
   16.2318   -7.9508    6.9153 C   0  0  0  0  0  0  0  0  0  0  0  0
   16.4006   -9.0124    7.7991 C   0  0  0  0  0  0  0  0  0  0  0  0
   17.6410   -9.3577    8.0284 C   0  0  0  0  0  0  0  0  0  0  0  0
   17.7776  -10.5261    8.8130 C   0  0  0  0  0  0  0  0  0  0  0  0
   18.9657  -10.7404    9.3324 C   0  0  0  0  0  0  0  0  0  0  0  0
   19.2605  -11.9486   10.0597 C   0  0  0  0  0  0  0  0  0  0  0  0
   20.5092  -12.0866   10.5039 C   0  0  0  0  0  0  0  0  0  0  0  0
   21.1826  -13.3307   10.8225 C   0  0  0  0  0  0  0  0  0  0  0  0
   21.8191  -13.3928    9.6271 C   0  0  0  0  0  0  0  0  0  0  0  0
   20.5417  -13.5570    8.2392 C   0  0  0  0  0  0  0  0  0  0  0  0
   19.2767  -12.6149    7.4510 C   0  0  0  0  0  0  0  0  0  0  0  0
   17.4487  -11.8091    6.4617 C   0  0  0  0  0  0  0  0  0  0  0  0
   16.2147  -10.6718    5.7644 C   0  0  0  0  0  0  0  0  0  0  0  0
   14.4128   -9.7451    4.9821 C   0  0  0  0  0  0  0  0  0  0  0  0
   12.8013   -8.7661    4.3772 C   0  0  0  0  0  0  0  0  0  0  0  0
    7.9528   -6.8336    3.3594 H   0  0  0  0  0  0  0  0  0  0  0  0
    8.7556   -7.1723    2.4157 H   0  0  0  0  0  0  0  0  0  0  0  0
    8.6269   -6.3570    4.4354 H   0  0  0  0  0  0  0  0  0  0  0  0
    9.4897   -5.3046    3.4967 H   0  0  0  0  0  0  0  0  0  0  0  0
    7.8415   -4.8568    1.3959 H   0  0  0  0  0  0  0  0  0  0  0  0
    6.1025   -3.3738    2.5270 H   0  0  0  0  0  0  0  0  0  0  0  0
    7.3793   -0.9877    1.9993 H   0  0  0  0  0  0  0  0  0  0  0  0
    7.5010   -1.9826    0.5196 H   0  0  0  0  0  0  0  0  0  0  0  0
    8.8402   -3.3265    1.3819 H   0  0  0  0  0  0  0  0  0  0  0  0
    8.4457   -2.5462    3.3255 H   0  0  0  0  0  0  0  0  0  0  0  0
   10.2034   -1.6138    2.8369 H   0  0  0  0  0  0  0  0  0  0  0  0
   10.5268   -2.9476    1.5175 H   0  0  0  0  0  0  0  0  0  0  0  0
    9.8779   -4.0624    4.4891 H   0  0  0  0  0  0  0  0  0  0  0  0
   12.3292   -3.4244    3.1380 H   0  0  0  0  0  0  0  0  0  0  0  0
   11.2307   -5.5086    5.3304 H   0  0  0  0  0  0  0  0  0  0  0  0
   13.9314   -5.0735    4.1348 H   0  0  0  0  0  0  0  0  0  0  0  0
   12.7907   -7.0557    6.3802 H   0  0  0  0  0  0  0  0  0  0  0  0
   15.4167   -6.4342    4.9656 H   0  0  0  0  0  0  0  0  0  0  0  0
   14.2145   -8.4542    7.0539 H   0  0  0  0  0  0  0  0  0  0  0  0
   16.9568   -7.5585    6.2042 H   0  0  0  0  0  0  0  0  0  0  0  0
   15.6028   -9.7529    7.9714 H   0  0  0  0  0  0  0  0  0  0  0  0
   18.4072   -8.9084    7.3813 H   0  0  0  0  0  0  0  0  0  0  0  0
   17.1081  -11.3897    8.7239 H   0  0  0  0  0  0  0  0  0  0  0  0
   19.7239  -10.1073    8.8635 H   0  0  0  0  0  0  0  0  0  0  0  0
   18.7219  -12.8794    9.8172 H   0  0  0  0  0  0  0  0  0  0  0  0
   21.1832  -11.4335    9.8917 H   0  0  0  0  0  0  0  0  0  0  0  0
   20.6799  -14.2901   11.0633 H   0  0  0  0  0  0  0  0  0  0  0  0
   22.8918  -12.9415    9.8836 H   0  0  0  0  0  0  0  0  0  0  0  0
   21.1295  -14.6166    8.7813 H   0  0  0  0  0  0  0  0  0  0  0  0
   20.4954  -12.2026    7.3450 H   0  0  0  0  0  0  0  0  0  0  0  0
   18.7331  -11.2659    6.6615 H   0  0  0  0  0  0  0  0  0  0  0  0
   17.1987  -10.0262    5.8052 H   0  0  0  0  0  0  0  0  0  0  0  0
   15.3656   -9.0897    4.9555 H   0  0  0  0  0  0  0  0  0  0  0  0
   12.8504   -7.7142    4.6526 H   0  0  0  0  0  0  0  0  0  0  0  0
  1  2  1  0  0  0  0
  1 31  1  0  0  0  0
  1 32  1  0  0  0  0
  1 33  1  0  0  0  0
  2  3  2  3  0  0  0
  2 30  1  0  0  0  0
  3  4  1  0  0  0  0
  3 34  1  0  0  0  0
  4  5  2  3  0  0  0
  4 35  1  0  0  0  0
  5  6  1  0  0  0  0
  5 36  1  0  0  0  0
  6  7  1  0  0  0  0
  6 37  1  0  0  0  0
  6 38  1  0  0  0  0
  7  8  1  0  0  0  0
  7 39  1  0  0  0  0
  7 40  1  0  0  0  0
  8  9  1  0  0  0  0
  8 41  1  0  0  0  0
  8 42  1  0  0  0  0
  9 10  2  3  0  0  0
  9 43  1  0  0  0  0
 10 11  1  0  0  0  0
 10 44  1  0  0  0  0
 11 12  2  3  0  0  0
 11 45  1  0  0  0  0
 12 13  1  0  0  0  0
 12 46  1  0  0  0  0
 13 14  2  3  0  0  0
 13 47  1  0  0  0  0
 14 15  1  0  0  0  0
 14 48  1  0  0  0  0
 15 16  2  3  0  0  0
 15 49  1  0  0  0  0
 16 17  1  0  0  0  0
 16 50  1  0  0  0  0
 17 18  2  3  0  0  0
 17 51  1  0  0  0  0
 18 19  1  0  0  0  0
 18 52  1  0  0  0  0
 19 20  2  3  0  0  0
 19 53  1  0  0  0  0
 20 21  1  0  0  0  0
 20 54  1  0  0  0  0
 21 22  2  3  0  0  0
 21 55  1  0  0  0  0
 22 23  1  0  0  0  0
 22 56  1  0  0  0  0
 23 24  2  3  0  0  0
 23 57  1  0  0  0  0
 24 25  1  0  0  0  0
 24 58  1  0  0  0  0
 25 26  2  3  0  0  0
 25 59  1  0  0  0  0
 26 27  1  0  0  0  0
 26 60  1  0  0  0  0
 27 28  2  3  0  0  0
 27 61  1  0  0  0  0
 28 29  1  0  0  0  0
 28 62  1  0  0  0  0
 29 30  2  3  0  0  0
 29 63  1  0  0  0  0
 30 64  1  0  0  0  0
M  END
$$$$
