
 OpenBabel04232216443D

 45 46  0  0  0  0  0  0  0  0999 V2000
    5.5637   -3.1597   -3.3994 C   0  0  0  0  0  0  0  0  0  0  0  0
    6.4397   -3.9576   -2.3769 C   0  0  0  0  0  0  0  0  0  0  0  0
    5.7361   -3.8629   -1.1989 C   0  0  0  0  0  0  0  0  0  0  0  0
    5.6811   -2.7472   -0.2021 C   0  0  0  0  0  0  0  0  0  0  0  0
    5.2398   -1.4633   -0.3157 C   0  0  0  0  0  0  0  0  0  0  0  0
    6.2719   -3.1195    1.1124 C   0  0  0  0  0  0  0  0  0  0  0  0
    7.6509   -2.5493    0.9979 C   0  0  0  0  0  0  0  0  0  0  0  0
    8.6251   -3.6336    0.6528 C   0  0  0  0  0  0  0  0  0  0  0  0
    9.8528   -2.8725    0.2525 C   0  0  0  0  0  0  0  0  0  0  0  0
   10.7964   -3.8363   -0.3581 C   0  0  0  0  0  0  0  0  0  0  0  0
   12.1822   -3.2899   -0.5303 C   0  0  0  0  0  0  0  0  0  0  0  0
   12.6200   -2.2681   -0.0261 O   0  0  0  0  0  0  0  0  0  0  0  0
   12.9635   -4.1154   -1.4848 C   0  0  0  0  0  0  0  0  0  0  0  0
   12.3188   -3.9617   -2.7007 C   0  0  0  0  0  0  0  0  0  0  0  0
   11.5497   -5.1684   -3.0618 C   0  0  0  0  0  0  0  0  0  0  0  0
   12.4762   -6.2953   -2.4839 C   0  0  0  0  0  0  0  0  0  0  0  0
   13.0134   -5.5607   -1.3106 C   0  0  0  0  0  0  0  0  0  0  0  0
   13.4723   -6.0472   -0.2685 O   0  0  0  0  0  0  0  0  0  0  0  0
   10.2592   -5.0613   -3.5176 C   0  0  0  0  0  0  0  0  0  0  0  0
    8.7302   -5.0898   -2.6809 C   0  0  0  0  0  0  0  0  0  0  0  0
    8.6115   -6.4529   -1.9951 C   0  0  0  0  0  0  0  0  0  0  0  0
    7.8425   -4.0852   -2.7442 N   0  0  0  0  0  0  0  0  0  0  0  0
    4.8216   -3.7939   -3.8886 H   0  0  0  0  0  0  0  0  0  0  0  0
    6.1594   -2.6063   -4.1289 H   0  0  0  0  0  0  0  0  0  0  0  0
    4.9593   -2.3724   -2.9070 H   0  0  0  0  0  0  0  0  0  0  0  0
    4.6328   -3.9948   -1.3334 H   0  0  0  0  0  0  0  0  0  0  0  0
    4.8173   -0.9868   -1.1923 H   0  0  0  0  0  0  0  0  0  0  0  0
    5.3824   -0.7811    0.5331 H   0  0  0  0  0  0  0  0  0  0  0  0
    6.2345   -4.2031    1.2812 H   0  0  0  0  0  0  0  0  0  0  0  0
    5.7473   -2.6541    1.9628 H   0  0  0  0  0  0  0  0  0  0  0  0
    7.9650   -2.0090    1.8873 H   0  0  0  0  0  0  0  0  0  0  0  0
    7.7022   -1.8069    0.1805 H   0  0  0  0  0  0  0  0  0  0  0  0
    8.2487   -4.2686   -0.1603 H   0  0  0  0  0  0  0  0  0  0  0  0
    8.8003   -4.3074    1.4956 H   0  0  0  0  0  0  0  0  0  0  0  0
   10.2820   -2.3497    1.0986 H   0  0  0  0  0  0  0  0  0  0  0  0
    9.6117   -2.1260   -0.5270 H   0  0  0  0  0  0  0  0  0  0  0  0
   10.3503   -3.9414   -1.3466 H   0  0  0  0  0  0  0  0  0  0  0  0
   10.7934   -4.8275    0.0993 H   0  0  0  0  0  0  0  0  0  0  0  0
   11.9545   -3.0129   -3.0339 H   0  0  0  0  0  0  0  0  0  0  0  0
   13.3592   -6.4812   -3.1261 H   0  0  0  0  0  0  0  0  0  0  0  0
   11.9960   -7.2213   -2.1896 H   0  0  0  0  0  0  0  0  0  0  0  0
   10.0333   -5.8902   -4.1939 H   0  0  0  0  0  0  0  0  0  0  0  0
    8.9372   -6.3878   -0.9547 H   0  0  0  0  0  0  0  0  0  0  0  0
    9.3214   -7.1557   -2.4699 H   0  0  0  0  0  0  0  0  0  0  0  0
    7.6271   -6.9155   -2.0705 H   0  0  0  0  0  0  0  0  0  0  0  0
  1  2  1  0  0  0  0
  1 23  1  0  0  0  0
  1 24  1  0  0  0  0
  1 25  1  0  0  0  0
  2  3  2  3  0  0  0
  2 22  1  0  0  0  0
  3  4  1  0  0  0  0
  3 26  1  0  0  0  0
  4  5  2  0  0  0  0
  4  6  1  0  0  0  0
  5 27  1  0  0  0  0
  5 28  1  0  0  0  0
  6  7  1  0  0  0  0
  6 29  1  0  0  0  0
  6 30  1  0  0  0  0
  7  8  1  0  0  0  0
  7 31  1  0  0  0  0
  7 32  1  0  0  0  0
  8  9  1  0  0  0  0
  8 33  1  0  0  0  0
  8 34  1  0  0  0  0
  9 10  1  0  0  0  0
  9 35  1  0  0  0  0
  9 36  1  0  0  0  0
 10 11  1  0  0  0  0
 10 37  1  0  0  0  0
 10 38  1  0  0  0  0
 11 12  2  0  0  0  0
 11 13  1  0  0  0  0
 13 14  2  0  0  0  0
 13 17  1  0  0  0  0
 14 15  1  0  0  0  0
 14 39  1  0  0  0  0
 15 16  1  0  0  0  0
 15 19  2  3  0  0  0
 16 17  1  0  0  0  0
 16 40  1  0  0  0  0
 16 41  1  0  0  0  0
 17 18  2  0  0  0  0
 19 20  1  0  0  0  0
 19 42  1  0  0  0  0
 20 21  1  0  0  0  0
 20 22  2  3  0  0  0
 21 43  1  0  0  0  0
 21 44  1  0  0  0  0
 21 45  1  0  0  0  0
M  END
$$$$
