
 OpenBabel04232216503D

 64 65  0  0  1  0  0  0  0  0999 V2000
    1.2312   -0.2846   -0.9416 C   0  0  0  0  0  0  0  0  0  0  0  0
    2.7045    0.0708   -0.5617 C   0  0  3  0  0  0  0  0  0  0  0  0
    3.6185   -0.9603   -1.1553 C   0  0  0  0  0  3  0  0  0  0  0  0
    4.0017   -2.1093   -0.2554 C   0  0  0  0  0  0  0  0  0  0  0  0
    5.4225   -2.6292   -0.4654 C   0  0  0  0  0  0  0  0  0  0  0  0
    6.3677   -2.2778    0.6930 C   0  0  0  0  0  0  0  0  0  0  0  0
    7.4752   -1.2836    0.3091 C   0  0  0  0  0  0  0  0  0  0  0  0
    7.4939   -0.0083    1.1653 C   0  0  0  0  0  0  0  0  0  0  0  0
    7.2239    1.2594    0.3370 C   0  0  0  0  0  0  0  0  0  0  0  0
    6.2021    2.1920    0.9911 C   0  0  0  0  0  0  0  0  0  0  0  0
    5.1394    2.7510    0.0112 C   0  0  0  0  0  0  0  0  0  0  0  0
    3.7702    2.2268    0.2955 N   0  0  0  0  0  0  0  0  0  0  0  0
    3.2487    2.5967    1.5876 C   0  0  0  0  0  0  0  0  0  0  0  0
    3.9427    3.1904    2.4174 O   0  0  0  0  0  0  0  0  0  0  0  0
    1.7922    2.3375    1.9824 C   0  0  0  0  0  0  0  0  0  0  0  0
    0.9827    2.7509    2.9442 C   0  0  0  0  0  0  0  0  0  0  0  0
    1.1798    3.7770    3.9964 C   0  0  0  0  0  0  0  0  0  0  0  0
    1.5501    5.1831    3.5111 C   0  0  0  0  0  0  0  0  0  0  0  0
    1.6488    6.0550    4.7631 C   0  0  0  0  0  0  0  0  0  0  0  0
    2.0453    7.5032    4.5121 C   0  0  0  0  0  0  0  0  0  0  0  0
    2.1322    8.2128    5.8760 C   0  0  0  0  0  0  0  0  0  0  0  0
   -0.3689    2.0395    2.9359 C   0  0  0  0  0  0  0  0  0  0  0  0
   -0.4267    1.4046    1.5788 C   0  0  0  0  0  0  0  0  0  0  0  0
    1.0142    1.4090    1.1857 C   0  0  0  0  0  0  0  0  0  0  0  0
    3.1951    1.4894   -0.7655 C   0  0  0  0  0  3  0  0  0  0  0  0
    0.9074   -1.1529   -0.3267 H   0  0  0  0  0  0  0  0  0  0  0  0
    1.0686   -0.4730   -1.9893 H   0  0  0  0  0  0  0  0  0  0  0  0
    0.4484    0.4572   -0.7384 H   0  0  0  0  0  0  0  0  0  0  0  0
    2.8724   -0.0831    0.5093 H   0  0  0  0  0  0  0  0  0  0  0  0
    3.6529   -1.0711   -2.2340 H   0  0  0  0  0  0  0  0  0  0  0  0
    3.2824   -2.9180   -0.4240 H   0  0  0  0  0  0  0  0  0  0  0  0
    3.8716   -1.8202    0.7908 H   0  0  0  0  0  0  0  0  0  0  0  0
    5.8293   -2.3018   -1.4298 H   0  0  0  0  0  0  0  0  0  0  0  0
    5.3702   -3.7252   -0.5262 H   0  0  0  0  0  0  0  0  0  0  0  0
    6.8551   -3.2052    1.0075 H   0  0  0  0  0  0  0  0  0  0  0  0
    5.8126   -1.9359    1.5788 H   0  0  0  0  0  0  0  0  0  0  0  0
    7.4377   -1.0438   -0.7584 H   0  0  0  0  0  0  0  0  0  0  0  0
    8.4369   -1.7928    0.4589 H   0  0  0  0  0  0  0  0  0  0  0  0
    8.4911    0.0867    1.6152 H   0  0  0  0  0  0  0  0  0  0  0  0
    6.8057   -0.0979    2.0125 H   0  0  0  0  0  0  0  0  0  0  0  0
    6.9219    1.0062   -0.6852 H   0  0  0  0  0  0  0  0  0  0  0  0
    8.1729    1.8101    0.2429 H   0  0  0  0  0  0  0  0  0  0  0  0
    6.7461    3.0397    1.4218 H   0  0  0  0  0  0  0  0  0  0  0  0
    5.7225    1.6816    1.8302 H   0  0  0  0  0  0  0  0  0  0  0  0
    5.4187    2.5560   -1.0255 H   0  0  0  0  0  0  0  0  0  0  0  0
    5.0834    3.8436    0.1141 H   0  0  0  0  0  0  0  0  0  0  0  0
    1.8947    3.3950    4.7256 H   0  0  0  0  0  0  0  0  0  0  0  0
    0.2170    3.8680    4.5271 H   0  0  0  0  0  0  0  0  0  0  0  0
    0.7769    5.5667    2.8312 H   0  0  0  0  0  0  0  0  0  0  0  0
    2.4918    5.1787    2.9519 H   0  0  0  0  0  0  0  0  0  0  0  0
    2.3755    5.5968    5.4414 H   0  0  0  0  0  0  0  0  0  0  0  0
    0.6795    6.0384    5.2625 H   0  0  0  0  0  0  0  0  0  0  0  0
    1.2940    7.9996    3.8900 H   0  0  0  0  0  0  0  0  0  0  0  0
    3.0053    7.5555    3.9998 H   0  0  0  0  0  0  0  0  0  0  0  0
    1.1734    8.1919    6.3805 H   0  0  0  0  0  0  0  0  0  0  0  0
    2.4294    9.2646    5.7321 H   0  0  0  0  0  0  0  0  0  0  0  0
    2.8760    7.7310    6.5096 H   0  0  0  0  0  0  0  0  0  0  0  0
   -1.2130    2.7242    3.0465 H   0  0  0  0  0  0  0  0  0  0  0  0
   -0.4061    1.2743    3.7110 H   0  0  0  0  0  0  0  0  0  0  0  0
   -1.0160    1.9655    0.8493 H   0  0  0  0  0  0  0  0  0  0  0  0
   -0.8221    0.3803    1.5896 H   0  0  0  0  0  0  0  0  0  0  0  0
    1.0705    1.8534    0.1989 H   0  0  0  0  0  0  0  0  0  0  0  0
    1.3696    0.4030    1.3827 H   0  0  0  0  0  0  0  0  0  0  0  0
    3.5817    1.7088   -1.7663 H   0  0  0  0  0  0  0  0  0  0  0  0
  1  2  1  0  0  0  0
  1 26  1  0  0  0  0
  1 27  1  0  0  0  0
  1 28  1  0  0  0  0
  2  3  1  0  0  0  0
  2 25  1  0  0  0  0
  2 29  1  0  0  0  0
  3  4  1  0  0  0  0
  3 30  1  0  0  0  0
  4  5  1  0  0  0  0
  4 31  1  0  0  0  0
  4 32  1  0  0  0  0
  5  6  1  0  0  0  0
  5 33  1  0  0  0  0
  5 34  1  0  0  0  0
  6  7  1  0  0  0  0
  6 35  1  0  0  0  0
  6 36  1  0  0  0  0
  7  8  1  0  0  0  0
  7 37  1  0  0  0  0
  7 38  1  0  0  0  0
  8  9  1  0  0  0  0
  8 39  1  0  0  0  0
  8 40  1  0  0  0  0
  9 10  1  0  0  0  0
  9 41  1  0  0  0  0
  9 42  1  0  0  0  0
 10 11  1  0  0  0  0
 10 43  1  0  0  0  0
 10 44  1  0  0  0  0
 11 12  1  0  0  0  0
 11 45  1  0  0  0  0
 11 46  1  0  0  0  0
 12 13  1  0  0  0  0
 12 25  1  0  0  0  0
 13 14  2  0  0  0  0
 13 15  1  0  0  0  0
 15 16  2  0  0  0  0
 15 24  1  0  0  0  0
 16 17  1  0  0  0  0
 16 22  1  0  0  0  0
 17 18  1  0  0  0  0
 17 47  1  0  0  0  0
 17 48  1  0  0  0  0
 18 19  1  0  0  0  0
 18 49  1  0  0  0  0
 18 50  1  0  0  0  0
 19 20  1  0  0  0  0
 19 51  1  0  0  0  0
 19 52  1  0  0  0  0
 20 21  1  0  0  0  0
 20 53  1  0  0  0  0
 20 54  1  0  0  0  0
 21 55  1  0  0  0  0
 21 56  1  0  0  0  0
 21 57  1  0  0  0  0
 22 23  1  0  0  0  0
 22 58  1  0  0  0  0
 22 59  1  0  0  0  0
 23 24  1  0  0  0  0
 23 60  1  0  0  0  0
 23 61  1  0  0  0  0
 24 62  1  0  0  0  0
 24 63  1  0  0  0  0
 25 64  1  0  0  0  0
M  END
$$$$
