
 OpenBabel04232217033D

 54 53  0  0  0  0  0  0  0  0999 V2000
    8.3615    6.8331    2.8141 S   0  0  0  0  0  0  0  0  0  0  0  0
    7.6965    5.6546    3.7238 O   0  0  0  0  0  0  0  0  0  0  0  0
    8.2865    5.5824    5.0763 O   0  0  0  0  0  0  0  0  0  0  0  0
    7.5722    4.4306    5.9829 S   0  0  0  0  0  0  0  0  0  0  0  0
    8.0956    2.9131    5.0763 C   0  0  0  0  0  0  0  0  0  0  0  0
    7.4715    1.4424    5.9718 S   0  0  0  0  0  0  0  0  0  0  0  0
    8.1013   -0.2049    4.9160 S   0  0  0  0  0  0  0  0  0  0  0  0
   10.1687   -0.2209    4.9341 S   0  0  0  0  0  0  0  0  0  0  0  0
   10.8346   -0.3685    6.8893 S   0  0  0  0  0  0  0  0  0  0  0  0
   12.9299   -0.3328    6.8372 S   0  0  0  0  0  0  0  0  0  0  0  0
   13.6221   -0.4005    8.8176 S   0  0  0  0  0  0  0  0  0  0  0  0
   15.7269   -0.4009    8.7972 S   0  0  0  0  0  0  0  0  0  0  0  0
   16.4158   -0.4712   10.7880 S   0  0  0  0  0  0  0  0  0  0  0  0
   18.5239   -0.4676   10.7749 S   0  0  0  0  0  0  0  0  0  0  0  0
   19.2133   -0.5413   12.7666 S   0  0  0  0  0  0  0  0  0  0  0  0
   21.3224   -0.5408   12.7531 S   0  0  0  0  0  0  0  0  0  0  0  0
   22.0129   -0.6111   14.7449 S   0  0  0  0  0  0  0  0  0  0  0  0
   24.1222   -0.6137   14.7314 S   0  0  0  0  0  0  0  0  0  0  0  0
   24.8128   -0.6869   16.7232 S   0  0  0  0  0  0  0  0  0  0  0  0
   26.9221   -0.6863   16.7100 S   0  0  0  0  0  0  0  0  0  0  0  0
   27.6127   -0.7628   18.7016 S   0  0  0  0  0  0  0  0  0  0  0  0
   29.7221   -0.7593   18.6885 S   0  0  0  0  0  0  0  0  0  0  0  0
   30.4127   -0.8326   20.6803 S   0  0  0  0  0  0  0  0  0  0  0  0
   32.5221   -0.8324   20.6671 S   0  0  0  0  0  0  0  0  0  0  0  0
   33.2127   -0.9084   22.6588 S   0  0  0  0  0  0  0  0  0  0  0  0
   35.3221   -0.9051   22.6456 S   0  0  0  0  0  0  0  0  0  0  0  0
   36.0127   -0.9842   24.6372 S   0  0  0  0  0  0  0  0  0  0  0  0
   38.1221   -0.9780   24.6242 S   0  0  0  0  0  0  0  0  0  0  0  0
   38.8127   -1.0600   26.6156 S   0  0  0  0  0  0  0  0  0  0  0  0
   40.9220   -1.0508   26.6028 S   0  0  0  0  0  0  0  0  0  0  0  0
   41.6127   -1.1358   28.5941 S   0  0  0  0  0  0  0  0  0  0  0  0
   43.7221   -1.1295   28.5811 S   0  0  0  0  0  0  0  0  0  0  0  0
   44.4127   -1.2112   30.5725 S   0  0  0  0  0  0  0  0  0  0  0  0
   46.5221   -1.2081   30.5594 S   0  0  0  0  0  0  0  0  0  0  0  0
   47.2127   -1.2869   32.5510 S   0  0  0  0  0  0  0  0  0  0  0  0
   49.3220   -1.2809   32.5379 S   0  0  0  0  0  0  0  0  0  0  0  0
   50.0127   -1.3628   34.5294 S   0  0  0  0  0  0  0  0  0  0  0  0
   52.1220   -1.3537   34.5165 S   0  0  0  0  0  0  0  0  0  0  0  0
   52.8125   -1.4384   36.5077 S   0  0  0  0  0  0  0  0  0  0  0  0
   54.9216   -1.4265   36.4947 S   0  0  0  0  0  0  0  0  0  0  0  0
   55.6116   -1.5084   38.4858 S   0  0  0  0  0  0  0  0  0  0  0  0
   57.7197   -1.4939   38.4721 S   0  0  0  0  0  0  0  0  0  0  0  0
   58.4080   -1.5727   40.4620 S   0  0  0  0  0  0  0  0  0  0  0  0
   60.5128   -1.5550   40.4463 S   0  0  0  0  0  0  0  0  0  0  0  0
   61.1940   -1.6377   42.4322 S   0  0  0  0  0  0  0  0  0  0  0  0
   63.2900   -1.6164   42.4092 S   0  0  0  0  0  0  0  0  0  0  0  0
   63.9469   -1.6655   44.3896 S   0  0  0  0  0  0  0  0  0  0  0  0
   66.0231   -1.7309   44.3630 S   0  0  0  0  0  0  0  0  0  0  0  0
   66.6582   -1.7365   46.3333 S   0  0  0  0  0  0  0  0  0  0  0  0
   66.0253   -3.5333   47.1203 S   0  0  0  0  0  0  0  0  0  0  0  0
    7.7209    6.5664    1.6742 H   0  0  0  0  0  0  0  0  0  0  0  0
    9.1957    2.8831    5.0506 H   0  0  0  0  0  0  0  0  0  0  0  0
    7.6970    2.9594    4.0637 H   0  0  0  0  0  0  0  0  0  0  0  0
   66.4934   -3.4525   48.3797 H   0  0  0  0  0  0  0  0  0  0  0  0
  1  2  1  0  0  0  0
  1 51  1  0  0  0  0
  2  3  1  0  0  0  0
  3  4  1  0  0  0  0
  4  5  1  0  0  0  0
  5  6  1  0  0  0  0
  5 52  1  0  0  0  0
  5 53  1  0  0  0  0
  6  7  1  0  0  0  0
  7  8  1  0  0  0  0
  8  9  1  0  0  0  0
  9 10  1  0  0  0  0
 10 11  1  0  0  0  0
 11 12  1  0  0  0  0
 12 13  1  0  0  0  0
 13 14  1  0  0  0  0
 14 15  1  0  0  0  0
 15 16  1  0  0  0  0
 16 17  1  0  0  0  0
 17 18  1  0  0  0  0
 18 19  1  0  0  0  0
 19 20  1  0  0  0  0
 20 21  1  0  0  0  0
 21 22  1  0  0  0  0
 22 23  1  0  0  0  0
 23 24  1  0  0  0  0
 24 25  1  0  0  0  0
 25 26  1  0  0  0  0
 26 27  1  0  0  0  0
 27 28  1  0  0  0  0
 28 29  1  0  0  0  0
 29 30  1  0  0  0  0
 30 31  1  0  0  0  0
 31 32  1  0  0  0  0
 32 33  1  0  0  0  0
 33 34  1  0  0  0  0
 34 35  1  0  0  0  0
 35 36  1  0  0  0  0
 36 37  1  0  0  0  0
 37 38  1  0  0  0  0
 38 39  1  0  0  0  0
 39 40  1  0  0  0  0
 40 41  1  0  0  0  0
 41 42  1  0  0  0  0
 42 43  1  0  0  0  0
 43 44  1  0  0  0  0
 44 45  1  0  0  0  0
 45 46  1  0  0  0  0
 46 47  1  0  0  0  0
 47 48  1  0  0  0  0
 48 49  1  0  0  0  0
 49 50  1  0  0  0  0
 50 54  1  0  0  0  0
M  END
$$$$
