
 OpenBabel04232216463D

 62 63  0  0  1  0  0  0  0  0999 V2000
    4.0342    0.0907    2.0225 C   0  0  0  0  0  0  0  0  0  0  0  0
    5.1324    1.0941    1.6048 C   0  0  0  0  0  0  0  0  0  0  0  0
    4.5601    1.8248    0.4487 C   0  0  0  0  0  0  0  0  0  0  0  0
    5.4455    1.9996   -0.5231 C   0  0  0  0  0  0  0  0  0  0  0  0
    6.7703    1.1747   -0.3469 C   0  0  3  0  0  0  0  0  0  0  0  0
    7.1512    0.5646   -1.6690 C   0  0  0  0  0  0  0  0  0  0  0  0
    8.0574   -0.6650   -1.7592 C   0  0  0  0  0  0  0  0  0  0  0  0
    7.6793   -1.3369   -3.0936 C   0  0  0  0  0  0  0  0  0  0  0  0
    8.5865   -2.4592   -3.5579 C   0  0  0  0  0  0  0  0  0  0  0  0
    8.1241   -2.9243   -4.9348 C   0  0  0  0  0  0  0  0  0  0  0  0
    5.3435    3.2647   -1.1809 C   0  0  0  0  0  0  0  0  0  0  0  0
    6.4637    3.7826   -1.6699 C   0  0  0  0  0  0  0  0  0  0  0  0
    6.9411    4.9857   -1.0755 C   0  0  0  0  0  0  0  0  0  0  0  0
    8.2597    5.1444   -1.0557 C   0  0  0  0  0  0  0  0  0  0  0  0
    8.8140    6.3104   -0.4924 C   0  0  0  0  0  0  0  0  0  0  0  0
   10.0699    6.6273   -0.7678 C   0  0  0  0  0  0  0  0  0  0  0  0
   10.5592    7.8688   -0.2544 C   0  0  0  0  0  0  0  0  0  0  0  0
   11.8471    8.0715   -0.0169 C   0  0  0  0  0  0  0  0  0  0  0  0
   12.8721    7.1313   -0.2987 C   0  0  0  0  0  0  0  0  0  0  0  0
   13.0652    5.8275    0.0621 C   0  0  0  0  0  0  0  0  0  0  0  0
   14.6004    5.5430   -0.1051 C   0  0  0  0  0  0  0  0  0  0  0  0
   15.0294    4.6726   -1.2740 C   0  0  0  0  0  0  0  0  0  0  0  0
   12.0566    4.9729    0.9924 C   0  0  0  0  0  0  0  0  0  0  0  0
   11.3721    3.7375    0.8725 C   0  0  0  0  0  0  0  0  0  0  0  0
    9.7337    3.3604    1.1384 C   0  0  0  0  0  0  0  0  0  0  0  0
    8.9411    2.1996    0.9221 C   0  0  0  0  0  0  0  0  0  0  0  0
    7.4186    1.8504    0.8430 N   0  0  0  0  0  0  0  0  0  0  0  0
    6.4337    1.2426    2.0052 N   0  0  0  0  0  0  0  0  0  0  0  0
    3.0470    0.5942    2.0426 H   0  0  0  0  0  0  0  0  0  0  0  0
    4.1678   -0.4654    2.9398 H   0  0  0  0  0  0  0  0  0  0  0  0
    3.9097   -0.6340    1.1915 H   0  0  0  0  0  0  0  0  0  0  0  0
    3.5938    2.3111    0.5030 H   0  0  0  0  0  0  0  0  0  0  0  0
    6.5146    0.1962    0.0977 H   0  0  0  0  0  0  0  0  0  0  0  0
    7.3985    1.2678   -2.4594 H   0  0  0  0  0  0  0  0  0  0  0  0
    6.1726    0.1516   -1.9991 H   0  0  0  0  0  0  0  0  0  0  0  0
    7.8862   -1.3705   -0.9365 H   0  0  0  0  0  0  0  0  0  0  0  0
    9.1064   -0.3597   -1.7413 H   0  0  0  0  0  0  0  0  0  0  0  0
    7.6490   -0.5672   -3.8765 H   0  0  0  0  0  0  0  0  0  0  0  0
    6.6556   -1.7330   -3.0148 H   0  0  0  0  0  0  0  0  0  0  0  0
    8.5519   -3.2957   -2.8523 H   0  0  0  0  0  0  0  0  0  0  0  0
    9.6205   -2.1059   -3.6175 H   0  0  0  0  0  0  0  0  0  0  0  0
    7.1058   -3.3283   -4.8894 H   0  0  0  0  0  0  0  0  0  0  0  0
    8.7852   -3.6987   -5.3282 H   0  0  0  0  0  0  0  0  0  0  0  0
    8.1153   -2.0887   -5.6457 H   0  0  0  0  0  0  0  0  0  0  0  0
    4.6134    3.9435   -0.7297 H   0  0  0  0  0  0  0  0  0  0  0  0
    7.2521    3.1518   -2.0526 H   0  0  0  0  0  0  0  0  0  0  0  0
    6.2869    5.6676   -0.5402 H   0  0  0  0  0  0  0  0  0  0  0  0
    8.9382    4.3913   -1.4620 H   0  0  0  0  0  0  0  0  0  0  0  0
    8.1943    6.9395    0.1420 H   0  0  0  0  0  0  0  0  0  0  0  0
   10.7033    5.9924   -1.3931 H   0  0  0  0  0  0  0  0  0  0  0  0
    9.8322    8.6463   -0.0410 H   0  0  0  0  0  0  0  0  0  0  0  0
   12.1794    9.0729    0.2862 H   0  0  0  0  0  0  0  0  0  0  0  0
   13.6736    7.6708   -0.8337 H   0  0  0  0  0  0  0  0  0  0  0  0
   15.0680    5.2381    0.8354 H   0  0  0  0  0  0  0  0  0  0  0  0
   15.1450    6.4966   -0.3148 H   0  0  0  0  0  0  0  0  0  0  0  0
   14.6997    3.6434   -1.1279 H   0  0  0  0  0  0  0  0  0  0  0  0
   16.1242    4.6758   -1.3624 H   0  0  0  0  0  0  0  0  0  0  0  0
   14.6414    5.0511   -2.2266 H   0  0  0  0  0  0  0  0  0  0  0  0
   12.6668    5.0074    1.9160 H   0  0  0  0  0  0  0  0  0  0  0  0
   11.8176    3.0211    1.5894 H   0  0  0  0  0  0  0  0  0  0  0  0
    9.2414    4.2611    1.5061 H   0  0  0  0  0  0  0  0  0  0  0  0
    9.4363    1.3178    0.5249 H   0  0  0  0  0  0  0  0  0  0  0  0
  1  2  1  0  0  0  0
  1 29  1  0  0  0  0
  1 30  1  0  0  0  0
  1 31  1  0  0  0  0
  2  3  1  0  0  0  0
  2 28  2  0  0  0  0
  3  4  2  0  0  0  0
  3 32  1  0  0  0  0
  4  5  1  0  0  0  0
  4 11  1  0  0  0  0
  5  6  1  0  0  0  0
  5 27  1  0  0  0  0
  5 33  1  0  0  0  0
  6  7  1  0  0  0  0
  6 34  1  0  0  0  0
  6 35  1  0  0  0  0
  7  8  1  0  0  0  0
  7 36  1  0  0  0  0
  7 37  1  0  0  0  0
  8  9  1  0  0  0  0
  8 38  1  0  0  0  0
  8 39  1  0  0  0  0
  9 10  1  0  0  0  0
  9 40  1  0  0  0  0
  9 41  1  0  0  0  0
 10 42  1  0  0  0  0
 10 43  1  0  0  0  0
 10 44  1  0  0  0  0
 11 12  2  3  0  0  0
 11 45  1  0  0  0  0
 12 13  1  0  0  0  0
 12 46  1  0  0  0  0
 13 14  2  3  0  0  0
 13 47  1  0  0  0  0
 14 15  1  0  0  0  0
 14 48  1  0  0  0  0
 15 16  2  3  0  0  0
 15 49  1  0  0  0  0
 16 17  1  0  0  0  0
 16 50  1  0  0  0  0
 17 18  2  3  0  0  0
 17 51  1  0  0  0  0
 18 19  1  0  0  0  0
 18 52  1  0  0  0  0
 19 20  2  3  0  0  0
 19 53  1  0  0  0  0
 20 21  1  0  0  0  0
 20 23  1  0  0  0  0
 21 22  1  0  0  0  0
 21 54  1  0  0  0  0
 21 55  1  0  0  0  0
 22 56  1  0  0  0  0
 22 57  1  0  0  0  0
 22 58  1  0  0  0  0
 23 24  2  3  0  0  0
 23 59  1  0  0  0  0
 24 25  1  0  0  0  0
 24 60  1  0  0  0  0
 25 26  2  3  0  0  0
 25 61  1  0  0  0  0
 26 27  1  0  0  0  0
 26 62  1  0  0  0  0
 27 28  1  0  0  0  0
M  END
$$$$
