
 OpenBabel04232216463D

 66 67  0  0  0  0  0  0  0  0999 V2000
    2.9585   -2.2623   -0.8482 C   0  0  0  0  0  0  0  0  0  0  0  0
    4.5034   -2.4457   -0.9817 C   0  0  0  0  0  0  0  0  0  0  0  0
    4.7663   -1.5557    0.2375 C   0  0  0  0  0  0  0  0  0  0  0  0
    4.7807   -0.1850    0.2898 C   0  0  0  0  0  0  0  0  0  0  0  0
    5.4111    0.5681   -0.9273 C   0  0  0  0  0  0  0  0  0  0  0  0
    4.5164    0.4938   -2.0912 C   0  0  0  0  0  0  0  0  0  0  0  0
    4.7552   -0.2417   -3.2499 C   0  0  0  0  0  0  0  0  0  0  0  0
    6.2270   -0.5447   -3.6174 C   0  0  0  0  0  0  0  0  0  0  0  0
    3.6047   -0.9497   -3.8620 C   0  0  0  0  0  0  0  0  0  0  0  0
    2.1494   -0.9477   -3.3561 C   0  0  0  0  0  0  0  0  0  0  0  0
    3.7637   -1.9053   -4.7934 C   0  0  0  0  0  0  0  0  0  0  0  0
    2.6092   -2.8737   -4.9910 C   0  0  0  0  0  0  0  0  0  0  0  0
    2.9507   -3.9496   -5.9055 C   0  0  0  0  0  0  0  0  0  0  0  0
    1.7814   -4.5402   -6.6470 C   0  0  0  0  0  0  0  0  0  0  0  0
    2.4358   -5.5271   -7.5707 C   0  0  0  0  0  0  0  0  0  0  0  0
    3.7439   -6.1428   -7.9559 C   0  0  0  0  0  0  0  0  0  0  0  0
    5.0413   -5.7309   -6.9453 C   0  0  0  0  0  0  0  0  0  0  0  0
    5.5456   -4.7876   -5.3622 C   0  0  0  0  0  0  0  0  0  0  0  0
    5.3495   -4.1218   -3.4734 C   0  0  0  0  0  0  0  0  0  0  0  0
    4.6882    0.5827    1.5411 C   0  0  0  0  0  0  0  0  0  0  0  0
    5.8607    0.9842    1.9114 C   0  0  0  0  0  0  0  0  0  0  0  0
    6.6810    1.7396    2.8116 C   0  0  0  0  0  0  0  0  0  0  0  0
    7.9671    1.4967    2.4289 C   0  0  0  0  0  0  0  0  0  0  0  0
    8.5541    0.2928    1.6932 C   0  0  0  0  0  0  0  0  0  0  0  0
    8.4308   -0.7256    0.7514 C   0  0  0  0  0  0  0  0  0  0  0  0
    7.8050   -1.6702   -0.4490 C   0  0  0  0  0  0  0  0  0  0  0  0
    7.0134   -2.4483   -1.3491 C   0  0  0  0  0  0  0  0  0  0  0  0
    5.4757   -3.0379   -1.8552 C   0  0  0  0  0  0  0  0  0  0  0  0
    2.5774   -1.9579    0.1580 H   0  0  0  0  0  0  0  0  0  0  0  0
    2.2896   -3.0625   -1.1392 H   0  0  0  0  0  0  0  0  0  0  0  0
    2.7126   -1.3006   -1.2882 H   0  0  0  0  0  0  0  0  0  0  0  0
    4.3998   -2.0202    1.2192 H   0  0  0  0  0  0  0  0  0  0  0  0
    6.3561    0.0557   -1.0824 H   0  0  0  0  0  0  0  0  0  0  0  0
    5.7467    1.5858   -0.6995 H   0  0  0  0  0  0  0  0  0  0  0  0
    3.5171    0.7613   -1.8548 H   0  0  0  0  0  0  0  0  0  0  0  0
    6.9722   -0.1606   -2.9030 H   0  0  0  0  0  0  0  0  0  0  0  0
    6.5055   -0.0936   -4.5676 H   0  0  0  0  0  0  0  0  0  0  0  0
    6.4648   -1.6026   -3.7151 H   0  0  0  0  0  0  0  0  0  0  0  0
    1.8308   -0.1913   -2.6504 H   0  0  0  0  0  0  0  0  0  0  0  0
    1.9076   -1.9294   -2.9106 H   0  0  0  0  0  0  0  0  0  0  0  0
    1.4412   -0.8775   -4.1839 H   0  0  0  0  0  0  0  0  0  0  0  0
    4.7287   -2.0943   -5.2544 H   0  0  0  0  0  0  0  0  0  0  0  0
    1.7140   -2.3881   -5.3761 H   0  0  0  0  0  0  0  0  0  0  0  0
    2.3941   -3.4059   -4.0510 H   0  0  0  0  0  0  0  0  0  0  0  0
    3.3359   -4.7594   -5.2812 H   0  0  0  0  0  0  0  0  0  0  0  0
    3.7070   -3.5746   -6.6021 H   0  0  0  0  0  0  0  0  0  0  0  0
    1.2032   -3.8116   -7.2298 H   0  0  0  0  0  0  0  0  0  0  0  0
    1.0662   -5.0703   -6.0034 H   0  0  0  0  0  0  0  0  0  0  0  0
    2.6583   -6.1058   -6.6550 H   0  0  0  0  0  0  0  0  0  0  0  0
    2.8791   -4.6447   -8.0634 H   0  0  0  0  0  0  0  0  0  0  0  0
    3.8812   -5.9097   -9.0517 H   0  0  0  0  0  0  0  0  0  0  0  0
    3.5215   -7.2342   -8.0538 H   0  0  0  0  0  0  0  0  0  0  0  0
    5.5972   -6.6833   -6.9511 H   0  0  0  0  0  0  0  0  0  0  0  0
    5.5968   -5.1588   -7.7186 H   0  0  0  0  0  0  0  0  0  0  0  0
    6.1893   -4.0286   -5.8507 H   0  0  0  0  0  0  0  0  0  0  0  0
    6.1850   -5.6348   -5.0801 H   0  0  0  0  0  0  0  0  0  0  0  0
    5.6091   -5.0796   -3.0161 H   0  0  0  0  0  0  0  0  0  0  0  0
    6.2700   -3.6138   -3.7828 H   0  0  0  0  0  0  0  0  0  0  0  0
    3.7605    0.7682    2.1174 H   0  0  0  0  0  0  0  0  0  0  0  0
    6.5250    0.7145    1.1203 H   0  0  0  0  0  0  0  0  0  0  0  0
    6.2998    2.4932    3.4212 H   0  0  0  0  0  0  0  0  0  0  0  0
    8.6512    2.3091    2.7321 H   0  0  0  0  0  0  0  0  0  0  0  0
    9.5588    0.3083    2.1568 H   0  0  0  0  0  0  0  0  0  0  0  0
    9.4474   -1.1497    0.7667 H   0  0  0  0  0  0  0  0  0  0  0  0
    8.7762   -1.6320   -0.9869 H   0  0  0  0  0  0  0  0  0  0  0  0
    7.6531   -2.8281   -2.1580 H   0  0  0  0  0  0  0  0  0  0  0  0
  1  2  1  0  0  0  0
  1 29  1  0  0  0  0
  1 30  1  0  0  0  0
  1 31  1  0  0  0  0
  2  3  1  0  0  0  0
  2 28  2  3  0  0  0
  3  4  2  3  0  0  0
  3 32  1  0  0  0  0
  4  5  1  0  0  0  0
  4 20  1  0  0  0  0
  5  6  1  0  0  0  0
  5 33  1  0  0  0  0
  5 34  1  0  0  0  0
  6  7  2  3  0  0  0
  6 35  1  0  0  0  0
  7  8  1  0  0  0  0
  7  9  1  0  0  0  0
  8 36  1  0  0  0  0
  8 37  1  0  0  0  0
  8 38  1  0  0  0  0
  9 10  1  0  0  0  0
  9 11  2  3  0  0  0
 10 39  1  0  0  0  0
 10 40  1  0  0  0  0
 10 41  1  0  0  0  0
 11 12  1  0  0  0  0
 11 42  1  0  0  0  0
 12 13  1  0  0  0  0
 12 43  1  0  0  0  0
 12 44  1  0  0  0  0
 13 14  1  0  0  0  0
 13 45  1  0  0  0  0
 13 46  1  0  0  0  0
 14 15  1  0  0  0  0
 14 47  1  0  0  0  0
 14 48  1  0  0  0  0
 15 16  1  0  0  0  0
 15 49  1  0  0  0  0
 15 50  1  0  0  0  0
 16 17  1  0  0  0  0
 16 51  1  0  0  0  0
 16 52  1  0  0  0  0
 17 18  1  0  0  0  0
 17 53  1  0  0  0  0
 17 54  1  0  0  0  0
 18 19  1  0  0  0  0
 18 55  1  0  0  0  0
 18 56  1  0  0  0  0
 19 28  1  0  0  0  0
 19 57  1  0  0  0  0
 19 58  1  0  0  0  0
 20 21  2  3  0  0  0
 20 59  1  0  0  0  0
 21 22  1  0  0  0  0
 21 60  1  0  0  0  0
 22 23  2  3  0  0  0
 22 61  1  0  0  0  0
 23 24  1  0  0  0  0
 23 62  1  0  0  0  0
 24 25  2  3  0  0  0
 24 63  1  0  0  0  0
 25 26  1  0  0  0  0
 25 64  1  0  0  0  0
 26 27  2  3  0  0  0
 26 65  1  0  0  0  0
 27 28  1  0  0  0  0
 27 66  1  0  0  0  0
M  END
$$$$
