
 OpenBabel04232216473D

 66 66  0  0  0  0  0  0  0  0999 V2000
    5.6374   -1.0580   -2.6898 C   0  0  0  0  0  0  0  0  0  0  0  0
    6.2908    0.2523   -3.1365 C   0  0  0  0  0  0  0  0  0  0  0  0
    5.3063    1.3714   -2.9574 C   0  0  0  0  0  0  0  0  0  0  0  0
    4.8135    1.6813   -1.7293 C   0  0  0  0  0  0  0  0  0  0  0  0
    5.4003    2.9823   -1.4016 C   0  0  0  0  0  0  0  0  0  0  0  0
    4.7134    4.0528   -2.2510 C   0  0  0  0  0  0  0  0  0  0  0  0
    6.6738    2.9826   -0.8925 C   0  0  0  0  0  0  0  0  0  0  0  0
    7.3950    1.6914   -0.3941 C   0  0  0  0  0  0  0  0  0  0  0  0
    7.8340    1.4047    1.0526 C   0  0  0  0  0  0  0  0  0  0  0  0
    9.0557    2.1498    1.5425 C   0  0  0  0  0  0  0  0  0  0  0  0
    7.5351    4.0447   -1.4198 C   0  0  0  0  0  0  0  0  0  0  0  0
    8.8528    4.1156   -1.2050 C   0  0  0  0  0  0  0  0  0  0  0  0
    9.7176    4.5902   -2.2519 C   0  0  0  0  0  0  0  0  0  0  0  0
   10.7453    3.8313   -2.6357 C   0  0  0  0  0  0  0  0  0  0  0  0
   11.5003    2.7406   -1.8721 C   0  0  0  0  0  0  0  0  0  0  0  0
   12.9274    3.1034   -1.4259 C   0  0  0  0  0  0  0  0  0  0  0  0
   12.9569    3.9782   -0.1706 C   0  0  0  0  0  0  0  0  0  0  0  0
   14.3721    4.0701    0.3950 C   0  0  0  0  0  0  0  0  0  0  0  0
   14.4109    4.9307    1.6538 C   0  0  0  0  0  0  0  0  0  0  0  0
   15.8427    5.0402    2.1669 C   0  0  0  0  0  0  0  0  0  0  0  0
   15.9230    5.9214    3.4069 C   0  0  0  0  0  0  0  0  0  0  0  0
   17.3576    6.0215    3.8943 C   0  0  0  0  0  0  0  0  0  0  0  0
   10.8702    3.7311   -4.0661 C   0  0  0  0  0  0  0  0  0  0  0  0
   10.3878    2.6960   -4.7897 C   0  0  0  0  0  0  0  0  0  0  0  0
    9.2633    1.7497   -4.6803 C   0  0  0  0  0  0  0  0  0  0  0  0
    8.3901    1.3499   -3.7088 C   0  0  0  0  0  0  0  0  0  0  0  0
    7.5292    0.2864   -3.5988 N   0  0  0  0  0  0  0  0  0  0  0  0
    4.5685   -1.0379   -2.9330 H   0  0  0  0  0  0  0  0  0  0  0  0
    5.7021   -1.0906   -1.5912 H   0  0  0  0  0  0  0  0  0  0  0  0
    6.0969   -1.9372   -3.1094 H   0  0  0  0  0  0  0  0  0  0  0  0
    4.5834    1.4521   -3.7597 H   0  0  0  0  0  0  0  0  0  0  0  0
    4.8881    1.0317   -0.8553 H   0  0  0  0  0  0  0  0  0  0  0  0
    3.6222    3.9340   -2.2225 H   0  0  0  0  0  0  0  0  0  0  0  0
    5.0032    3.9250   -3.3065 H   0  0  0  0  0  0  0  0  0  0  0  0
    4.9493    5.0781   -1.9672 H   0  0  0  0  0  0  0  0  0  0  0  0
    8.2920    1.4791   -0.9956 H   0  0  0  0  0  0  0  0  0  0  0  0
    6.7921    0.7941   -0.6159 H   0  0  0  0  0  0  0  0  0  0  0  0
    8.0944    0.3537    1.0789 H   0  0  0  0  0  0  0  0  0  0  0  0
    6.9920    1.5509    1.7151 H   0  0  0  0  0  0  0  0  0  0  0  0
    9.9479    1.8886    0.9531 H   0  0  0  0  0  0  0  0  0  0  0  0
    9.2652    1.8636    2.5730 H   0  0  0  0  0  0  0  0  0  0  0  0
    8.8970    3.2260    1.5205 H   0  0  0  0  0  0  0  0  0  0  0  0
    7.1433    4.5860   -2.2829 H   0  0  0  0  0  0  0  0  0  0  0  0
    9.3132    3.4768   -0.4811 H   0  0  0  0  0  0  0  0  0  0  0  0
    9.2427    5.2586   -2.9864 H   0  0  0  0  0  0  0  0  0  0  0  0
   11.5950    1.8455   -2.5002 H   0  0  0  0  0  0  0  0  0  0  0  0
   10.9447    2.3859   -1.0018 H   0  0  0  0  0  0  0  0  0  0  0  0
   13.4906    3.5873   -2.2326 H   0  0  0  0  0  0  0  0  0  0  0  0
   13.4577    2.1669   -1.2010 H   0  0  0  0  0  0  0  0  0  0  0  0
   12.2975    3.5495    0.5922 H   0  0  0  0  0  0  0  0  0  0  0  0
   12.5865    4.9838   -0.4011 H   0  0  0  0  0  0  0  0  0  0  0  0
   15.0498    4.4864   -0.3604 H   0  0  0  0  0  0  0  0  0  0  0  0
   14.7395    3.0647    0.6371 H   0  0  0  0  0  0  0  0  0  0  0  0
   13.7715    4.4894    2.4287 H   0  0  0  0  0  0  0  0  0  0  0  0
   14.0157    5.9301    1.4361 H   0  0  0  0  0  0  0  0  0  0  0  0
   16.4832    5.4557    1.3786 H   0  0  0  0  0  0  0  0  0  0  0  0
   16.2278    4.0392    2.3988 H   0  0  0  0  0  0  0  0  0  0  0  0
   15.2932    5.5068    4.2025 H   0  0  0  0  0  0  0  0  0  0  0  0
   15.5434    6.9241    3.1784 H   0  0  0  0  0  0  0  0  0  0  0  0
   17.7500    5.0321    4.1507 H   0  0  0  0  0  0  0  0  0  0  0  0
   17.4149    6.6552    4.7834 H   0  0  0  0  0  0  0  0  0  0  0  0
   18.0009    6.4543    3.1212 H   0  0  0  0  0  0  0  0  0  0  0  0
   11.2787    4.6161   -4.5870 H   0  0  0  0  0  0  0  0  0  0  0  0
   11.1745    2.2881   -5.4350 H   0  0  0  0  0  0  0  0  0  0  0  0
    9.1021    1.2620   -5.6747 H   0  0  0  0  0  0  0  0  0  0  0  0
    8.6394    1.8524   -2.7759 H   0  0  0  0  0  0  0  0  0  0  0  0
  1  2  1  0  0  0  0
  1 28  1  0  0  0  0
  1 29  1  0  0  0  0
  1 30  1  0  0  0  0
  2  3  1  0  0  0  0
  2 27  2  0  0  0  0
  3  4  2  0  0  0  0
  3 31  1  0  0  0  0
  4  5  1  0  0  0  0
  4 32  1  0  0  0  0
  5  6  1  0  0  0  0
  5  7  2  0  0  0  0
  6 33  1  0  0  0  0
  6 34  1  0  0  0  0
  6 35  1  0  0  0  0
  7  8  1  0  0  0  0
  7 11  1  0  0  0  0
  8  9  1  0  0  0  0
  8 36  1  0  0  0  0
  8 37  1  0  0  0  0
  9 10  1  0  0  0  0
  9 38  1  0  0  0  0
  9 39  1  0  0  0  0
 10 40  1  0  0  0  0
 10 41  1  0  0  0  0
 10 42  1  0  0  0  0
 11 12  2  0  0  0  0
 11 43  1  0  0  0  0
 12 13  1  0  0  0  0
 12 44  1  0  0  0  0
 13 14  2  0  0  0  0
 13 45  1  0  0  0  0
 14 15  1  0  0  0  0
 14 23  1  0  0  0  0
 15 16  1  0  0  0  0
 15 46  1  0  0  0  0
 15 47  1  0  0  0  0
 16 17  1  0  0  0  0
 16 48  1  0  0  0  0
 16 49  1  0  0  0  0
 17 18  1  0  0  0  0
 17 50  1  0  0  0  0
 17 51  1  0  0  0  0
 18 19  1  0  0  0  0
 18 52  1  0  0  0  0
 18 53  1  0  0  0  0
 19 20  1  0  0  0  0
 19 54  1  0  0  0  0
 19 55  1  0  0  0  0
 20 21  1  0  0  0  0
 20 56  1  0  0  0  0
 20 57  1  0  0  0  0
 21 22  1  0  0  0  0
 21 58  1  0  0  0  0
 21 59  1  0  0  0  0
 22 60  1  0  0  0  0
 22 61  1  0  0  0  0
 22 62  1  0  0  0  0
 23 24  2  0  0  0  0
 23 63  1  0  0  0  0
 24 25  1  0  0  0  0
 24 64  1  0  0  0  0
 25 26  2  0  0  0  0
 25 65  1  0  0  0  0
 26 27  1  0  0  0  0
 26 66  1  0  0  0  0
M  END
$$$$
