
 OpenBabel04232216533D

235234  0  0  0  0  0  0  0  0999 V2000
    1.0734   -0.0343   -0.0392 C   0  0  0  0  0  0  0  0  0  0  0  0
    2.5900   -0.0375   -0.0344 C   0  0  0  0  0  0  0  0  0  0  0  0
    3.1132   -1.1939    0.8064 C   0  0  0  0  0  0  0  0  0  0  0  0
    4.6342   -1.2050    0.8145 C   0  0  0  0  0  0  0  0  0  0  0  0
    5.1542   -2.3640    1.6572 C   0  0  0  0  0  0  0  0  0  0  0  0
    6.6794   -2.3723    1.6632 C   0  0  0  0  0  0  0  0  0  0  0  0
    7.1534   -3.4919    2.4752 N   0  0  0  0  0  0  0  0  0  0  0  0
    8.5799   -3.4934    2.4737 N   0  0  0  0  0  0  0  0  0  0  0  0
    9.0620   -4.5690    3.2534 N   0  0  0  0  0  0  0  0  0  0  0  0
   10.4690   -4.5704    3.2546 N   0  0  0  0  0  0  0  0  0  0  0  0
   10.9364   -5.6445    4.0307 N   0  0  0  0  0  0  0  0  0  0  0  0
   12.3358   -5.6408    4.0308 N   0  0  0  0  0  0  0  0  0  0  0  0
   12.8030   -6.7201    4.8082 N   0  0  0  0  0  0  0  0  0  0  0  0
   14.2205   -6.7255    4.8167 N   0  0  0  0  0  0  0  0  0  0  0  0
   14.7191   -7.8069    5.5963 N   0  0  0  0  0  0  0  0  0  0  0  0
   16.1519   -7.8045    5.5966 N   0  0  0  0  0  0  0  0  0  0  0  0
   16.6110   -8.9277    6.4039 C   0  0  0  0  0  0  0  0  0  0  0  0
   18.1355   -8.9342    6.4136 C   0  0  0  0  0  0  0  0  0  0  0  0
   18.6543  -10.0952    7.2503 C   0  0  0  0  0  0  0  0  0  0  0  0
   20.1736  -10.1009    7.2570 C   0  0  0  0  0  0  0  0  0  0  0  0
   20.6861  -11.2592    8.0943 C   0  0  0  0  0  0  0  0  0  0  0  0
   22.2035  -11.2618    8.1012 C   0  0  0  0  0  0  0  0  0  0  0  0
   22.7143  -12.4208    8.9366 C   0  0  0  0  0  0  0  0  0  0  0  0
   24.2309  -12.4240    8.9413 C   0  0  0  0  0  0  0  0  0  0  0  0
   24.7413  -13.5825    9.7764 C   0  0  0  0  0  0  0  0  0  0  0  0
   26.2578  -13.5842    9.7826 C   0  0  0  0  0  0  0  0  0  0  0  0
   26.7680  -14.7427   10.6176 C   0  0  0  0  0  0  0  0  0  0  0  0
   28.2845  -14.7444   10.6238 C   0  0  0  0  0  0  0  0  0  0  0  0
   28.7947  -15.9029   11.4588 C   0  0  0  0  0  0  0  0  0  0  0  0
   30.3112  -15.9046   11.4650 C   0  0  0  0  0  0  0  0  0  0  0  0
   30.8214  -17.0631   12.3000 C   0  0  0  0  0  0  0  0  0  0  0  0
   32.3378  -17.0648   12.3062 C   0  0  0  0  0  0  0  0  0  0  0  0
   32.8480  -18.2233   13.1412 C   0  0  0  0  0  0  0  0  0  0  0  0
   34.3645  -18.2262   13.1458 C   0  0  0  0  0  0  0  0  0  0  0  0
   34.8747  -19.3847   13.9808 C   0  0  0  0  0  0  0  0  0  0  0  0
   36.3911  -19.3864   13.9870 C   0  0  0  0  0  0  0  0  0  0  0  0
   36.9013  -20.5461   14.8204 C   0  0  0  0  0  0  0  0  0  0  0  0
   38.4178  -20.5490   14.8249 C   0  0  0  0  0  0  0  0  0  0  0  0
   38.9280  -21.7075   15.6600 C   0  0  0  0  0  0  0  0  0  0  0  0
   40.4445  -21.7116   15.6629 C   0  0  0  0  0  0  0  0  0  0  0  0
   40.9547  -22.8713   16.4963 C   0  0  0  0  0  0  0  0  0  0  0  0
   42.4711  -22.8753   16.4992 C   0  0  0  0  0  0  0  0  0  0  0  0
   42.9813  -24.0350   17.3325 C   0  0  0  0  0  0  0  0  0  0  0  0
   44.4978  -24.0390   17.3355 C   0  0  0  0  0  0  0  0  0  0  0  0
   45.0080  -25.1987   18.1688 C   0  0  0  0  0  0  0  0  0  0  0  0
   46.5245  -25.2028   18.1718 C   0  0  0  0  0  0  0  0  0  0  0  0
   47.0346  -26.3625   19.0051 C   0  0  0  0  0  0  0  0  0  0  0  0
   48.5511  -26.3665   19.0081 C   0  0  0  0  0  0  0  0  0  0  0  0
   49.0613  -27.5262   19.8414 C   0  0  0  0  0  0  0  0  0  0  0  0
   50.5778  -27.5291   19.8460 C   0  0  0  0  0  0  0  0  0  0  0  0
   51.0880  -28.6888   20.6794 C   0  0  0  0  0  0  0  0  0  0  0  0
   52.6044  -28.6905   20.6856 C   0  0  0  0  0  0  0  0  0  0  0  0
   53.1146  -29.8490   21.5206 C   0  0  0  0  0  0  0  0  0  0  0  0
   54.6311  -29.8519   21.5252 C   0  0  0  0  0  0  0  0  0  0  0  0
   55.1413  -31.0116   22.3585 C   0  0  0  0  0  0  0  0  0  0  0  0
   56.6577  -31.0156   22.3615 C   0  0  0  0  0  0  0  0  0  0  0  0
   57.1679  -32.1765   23.1932 C   0  0  0  0  0  0  0  0  0  0  0  0
   58.6844  -32.1817   23.1945 C   0  0  0  0  0  0  0  0  0  0  0  0
   59.1946  -33.3426   24.0262 C   0  0  0  0  0  0  0  0  0  0  0  0
   60.7111  -33.3467   24.0291 C   0  0  0  0  0  0  0  0  0  0  0  0
   61.2212  -34.5075   24.8609 C   0  0  0  0  0  0  0  0  0  0  0  0
   62.7377  -34.5116   24.8638 C   0  0  0  0  0  0  0  0  0  0  0  0
   63.2479  -35.6724   25.6955 C   0  0  0  0  0  0  0  0  0  0  0  0
   64.7644  -35.6765   25.6985 C   0  0  0  0  0  0  0  0  0  0  0  0
   65.2746  -36.8374   26.5302 C   0  0  0  0  0  0  0  0  0  0  0  0
   66.7910  -36.8414   26.5331 C   0  0  0  0  0  0  0  0  0  0  0  0
   67.3012  -38.0023   27.3649 C   0  0  0  0  0  0  0  0  0  0  0  0
   68.8177  -38.0063   27.3678 C   0  0  0  0  0  0  0  0  0  0  0  0
   69.3279  -39.1672   28.1995 C   0  0  0  0  0  0  0  0  0  0  0  0
   70.8444  -39.1701   28.2041 C   0  0  0  0  0  0  0  0  0  0  0  0
   71.3546  -40.3310   29.0358 C   0  0  0  0  0  0  0  0  0  0  0  0
   72.8711  -40.3339   29.0404 C   0  0  0  0  0  0  0  0  0  0  0  0
   73.3813  -41.4948   29.8722 C   0  0  0  0  0  0  0  0  0  0  0  0
   74.8979  -41.4977   29.8768 C   0  0  0  0  0  0  0  0  0  0  0  0
   75.4083  -42.6586   30.7085 C   0  0  0  0  0  0  0  0  0  0  0  0
   76.9248  -42.6607   30.7150 C   0  0  0  0  0  0  0  0  0  0  0  0
   77.4355  -43.8218   31.5469 C   0  0  0  0  0  0  0  0  0  0  0  0
   78.9538  -43.8243   31.5537 C   0  0  0  0  0  0  0  0  0  0  0  0
   79.4667  -44.9867   32.3841 C   0  0  0  0  0  0  0  0  0  0  0  0
   80.9883  -44.9983   32.3948 C   0  0  0  0  0  0  0  0  0  0  0  0
   81.4984  -46.1599   33.2246 C   0  0  0  0  0  0  0  0  0  0  0  0
    0.6973    0.7954   -0.6427 H   0  0  0  0  0  0  0  0  0  0  0  0
    0.6850    0.0740    0.9785 H   0  0  0  0  0  0  0  0  0  0  0  0
    0.6874   -0.9694   -0.4575 H   0  0  0  0  0  0  0  0  0  0  0  0
    2.9597    0.9132    0.3673 H   0  0  0  0  0  0  0  0  0  0  0  0
    2.9620   -0.1253   -1.0620 H   0  0  0  0  0  0  0  0  0  0  0  0
    2.7380   -2.1436    0.4065 H   0  0  0  0  0  0  0  0  0  0  0  0
    2.7378   -1.1063    1.8332 H   0  0  0  0  0  0  0  0  0  0  0  0
    5.0086   -0.2553    1.2155 H   0  0  0  0  0  0  0  0  0  0  0  0
    5.0089   -1.2948   -0.2122 H   0  0  0  0  0  0  0  0  0  0  0  0
    4.7716   -3.3100    1.2534 H   0  0  0  0  0  0  0  0  0  0  0  0
    4.7733   -2.2690    2.6824 H   0  0  0  0  0  0  0  0  0  0  0  0
    7.0382   -1.4230    2.0806 H   0  0  0  0  0  0  0  0  0  0  0  0
    7.0476   -2.4514    0.6324 H   0  0  0  0  0  0  0  0  0  0  0  0
    6.8322   -4.3684    2.0645 H   0  0  0  0  0  0  0  0  0  0  0  0
    8.9434   -2.6425    2.9023 H   0  0  0  0  0  0  0  0  0  0  0  0
    8.7640   -5.4614    2.8684 H   0  0  0  0  0  0  0  0  0  0  0  0
   10.8279   -3.7104    3.6617 H   0  0  0  0  0  0  0  0  0  0  0  0
   10.5944   -6.5243    3.6490 H   0  0  0  0  0  0  0  0  0  0  0  0
   12.6872   -4.7686    4.4208 H   0  0  0  0  0  0  0  0  0  0  0  0
   12.4578   -7.5842    4.3987 H   0  0  0  0  0  0  0  0  0  0  0  0
   14.5215   -5.8404    5.2150 H   0  0  0  0  0  0  0  0  0  0  0  0
   14.3759   -8.6671    5.1726 H   0  0  0  0  0  0  0  0  0  0  0  0
   16.4640   -6.9272    6.0109 H   0  0  0  0  0  0  0  0  0  0  0  0
   16.2544   -9.8761    5.9823 H   0  0  0  0  0  0  0  0  0  0  0  0
   16.2409   -8.8531    7.4345 H   0  0  0  0  0  0  0  0  0  0  0  0
   18.5169   -7.9903    6.8235 H   0  0  0  0  0  0  0  0  0  0  0  0
   18.5200   -9.0228    5.3893 H   0  0  0  0  0  0  0  0  0  0  0  0
   18.2835  -11.0444    6.8444 H   0  0  0  0  0  0  0  0  0  0  0  0
   18.2803  -10.0122    8.2782 H   0  0  0  0  0  0  0  0  0  0  0  0
   20.5496   -9.1539    7.6631 H   0  0  0  0  0  0  0  0  0  0  0  0
   20.5520  -10.1887    6.2311 H   0  0  0  0  0  0  0  0  0  0  0  0
   20.3140  -12.2078    7.6879 H   0  0  0  0  0  0  0  0  0  0  0  0
   20.3093  -11.1738    9.1211 H   0  0  0  0  0  0  0  0  0  0  0  0
   22.5769  -10.3149    8.5099 H   0  0  0  0  0  0  0  0  0  0  0  0
   22.5817  -11.3469    7.0752 H   0  0  0  0  0  0  0  0  0  0  0  0
   22.3405  -13.3683    8.5293 H   0  0  0  0  0  0  0  0  0  0  0  0
   22.3381  -12.3356    9.9636 H   0  0  0  0  0  0  0  0  0  0  0  0
   24.6052  -11.4767    9.3487 H   0  0  0  0  0  0  0  0  0  0  0  0
   24.6075  -12.5094    7.9146 H   0  0  0  0  0  0  0  0  0  0  0  0
   24.3684  -14.5299    9.3681 H   0  0  0  0  0  0  0  0  0  0  0  0
   24.3637  -13.4979   10.8028 H   0  0  0  0  0  0  0  0  0  0  0  0
   26.6307  -12.6368   10.1908 H   0  0  0  0  0  0  0  0  0  0  0  0
   26.6354  -13.6688    8.7561 H   0  0  0  0  0  0  0  0  0  0  0  0
   26.3951  -15.6901   10.2093 H   0  0  0  0  0  0  0  0  0  0  0  0
   26.3904  -14.6581   11.6440 H   0  0  0  0  0  0  0  0  0  0  0  0
   28.6574  -13.7970   11.0320 H   0  0  0  0  0  0  0  0  0  0  0  0
   28.6621  -14.8290    9.5973 H   0  0  0  0  0  0  0  0  0  0  0  0
   28.4218  -16.8503   11.0506 H   0  0  0  0  0  0  0  0  0  0  0  0
   28.4171  -15.8183   12.4852 H   0  0  0  0  0  0  0  0  0  0  0  0
   30.6841  -14.9572   11.8732 H   0  0  0  0  0  0  0  0  0  0  0  0
   30.6888  -15.9892   10.4386 H   0  0  0  0  0  0  0  0  0  0  0  0
   30.4484  -18.0105   11.8918 H   0  0  0  0  0  0  0  0  0  0  0  0
   30.4437  -16.9785   13.3264 H   0  0  0  0  0  0  0  0  0  0  0  0
   32.7108  -16.1174   12.7144 H   0  0  0  0  0  0  0  0  0  0  0  0
   32.7155  -17.1494   11.2798 H   0  0  0  0  0  0  0  0  0  0  0  0
   32.4739  -19.1707   12.7338 H   0  0  0  0  0  0  0  0  0  0  0  0
   32.4716  -18.1380   14.1680 H   0  0  0  0  0  0  0  0  0  0  0  0
   34.7386  -17.2789   13.5532 H   0  0  0  0  0  0  0  0  0  0  0  0
   34.7409  -18.3116   12.1190 H   0  0  0  0  0  0  0  0  0  0  0  0
   34.5018  -20.3321   13.5726 H   0  0  0  0  0  0  0  0  0  0  0  0
   34.4971  -19.3002   15.0072 H   0  0  0  0  0  0  0  0  0  0  0  0
   36.7641  -18.4396   14.3966 H   0  0  0  0  0  0  0  0  0  0  0  0
   36.7688  -19.4696   12.9604 H   0  0  0  0  0  0  0  0  0  0  0  0
   36.5273  -21.4929   14.4117 H   0  0  0  0  0  0  0  0  0  0  0  0
   36.5249  -20.4622   15.8473 H   0  0  0  0  0  0  0  0  0  0  0  0
   38.7919  -19.6017   15.2323 H   0  0  0  0  0  0  0  0  0  0  0  0
   38.7942  -20.6344   13.7981 H   0  0  0  0  0  0  0  0  0  0  0  0
   38.5527  -22.6547   15.2534 H   0  0  0  0  0  0  0  0  0  0  0  0
   38.5527  -21.6214   16.6871 H   0  0  0  0  0  0  0  0  0  0  0  0
   40.8197  -20.7649   16.0707 H   0  0  0  0  0  0  0  0  0  0  0  0
   40.8197  -21.7963   14.6356 H   0  0  0  0  0  0  0  0  0  0  0  0
   40.5794  -23.8179   16.0884 H   0  0  0  0  0  0  0  0  0  0  0  0
   40.5794  -22.7866   17.5235 H   0  0  0  0  0  0  0  0  0  0  0  0
   42.8464  -21.9287   16.9070 H   0  0  0  0  0  0  0  0  0  0  0  0
   42.8464  -22.9600   15.4719 H   0  0  0  0  0  0  0  0  0  0  0  0
   42.6060  -24.9816   16.9247 H   0  0  0  0  0  0  0  0  0  0  0  0
   42.6060  -23.9503   18.3598 H   0  0  0  0  0  0  0  0  0  0  0  0
   44.8731  -23.0924   17.7433 H   0  0  0  0  0  0  0  0  0  0  0  0
   44.8731  -24.1237   16.3082 H   0  0  0  0  0  0  0  0  0  0  0  0
   44.6327  -26.1454   17.7610 H   0  0  0  0  0  0  0  0  0  0  0  0
   44.6327  -25.1140   19.1961 H   0  0  0  0  0  0  0  0  0  0  0  0
   46.8997  -24.2562   18.5796 H   0  0  0  0  0  0  0  0  0  0  0  0
   46.8997  -25.2875   17.1445 H   0  0  0  0  0  0  0  0  0  0  0  0
   46.6594  -27.3091   18.5973 H   0  0  0  0  0  0  0  0  0  0  0  0
   46.6594  -26.2778   20.0324 H   0  0  0  0  0  0  0  0  0  0  0  0
   48.9264  -25.4199   19.4159 H   0  0  0  0  0  0  0  0  0  0  0  0
   48.9264  -26.4512   17.9808 H   0  0  0  0  0  0  0  0  0  0  0  0
   48.6872  -28.4730   19.4327 H   0  0  0  0  0  0  0  0  0  0  0  0
   48.6849  -27.4423   20.8684 H   0  0  0  0  0  0  0  0  0  0  0  0
   50.9519  -26.5824   20.2547 H   0  0  0  0  0  0  0  0  0  0  0  0
   50.9542  -27.6130   18.8191 H   0  0  0  0  0  0  0  0  0  0  0  0
   50.7150  -29.6356   20.2698 H   0  0  0  0  0  0  0  0  0  0  0  0
   50.7103  -28.6057   21.7059 H   0  0  0  0  0  0  0  0  0  0  0  0
   52.9774  -27.7431   21.0938 H   0  0  0  0  0  0  0  0  0  0  0  0
   52.9820  -28.7751   19.6591 H   0  0  0  0  0  0  0  0  0  0  0  0
   52.7405  -30.7963   21.1132 H   0  0  0  0  0  0  0  0  0  0  0  0
   52.7382  -29.7636   22.5474 H   0  0  0  0  0  0  0  0  0  0  0  0
   55.0052  -28.9051   21.9339 H   0  0  0  0  0  0  0  0  0  0  0  0
   55.0075  -29.9358   20.4982 H   0  0  0  0  0  0  0  0  0  0  0  0
   54.7660  -31.9582   21.9507 H   0  0  0  0  0  0  0  0  0  0  0  0
   54.7660  -30.9269   23.3858 H   0  0  0  0  0  0  0  0  0  0  0  0
   57.0330  -30.0696   22.7707 H   0  0  0  0  0  0  0  0  0  0  0  0
   57.0330  -31.0989   21.3341 H   0  0  0  0  0  0  0  0  0  0  0  0
   56.7915  -33.1225   22.7848 H   0  0  0  0  0  0  0  0  0  0  0  0
   56.7938  -32.0925   24.2210 H   0  0  0  0  0  0  0  0  0  0  0  0
   59.0608  -31.2358   23.6028 H   0  0  0  0  0  0  0  0  0  0  0  0
   59.0585  -32.2658   22.1667 H   0  0  0  0  0  0  0  0  0  0  0  0
   58.8193  -34.2887   23.6170 H   0  0  0  0  0  0  0  0  0  0  0  0
   58.8193  -33.2594   25.0536 H   0  0  0  0  0  0  0  0  0  0  0  0
   61.0863  -32.4006   24.4383 H   0  0  0  0  0  0  0  0  0  0  0  0
   61.0863  -33.4299   23.0017 H   0  0  0  0  0  0  0  0  0  0  0  0
   60.8460  -35.4536   24.4517 H   0  0  0  0  0  0  0  0  0  0  0  0
   60.8460  -34.4243   25.8883 H   0  0  0  0  0  0  0  0  0  0  0  0
   63.1130  -33.5655   25.2730 H   0  0  0  0  0  0  0  0  0  0  0  0
   63.1130  -34.5948   23.8364 H   0  0  0  0  0  0  0  0  0  0  0  0
   62.8726  -36.6185   25.2863 H   0  0  0  0  0  0  0  0  0  0  0  0
   62.8726  -35.5892   26.7229 H   0  0  0  0  0  0  0  0  0  0  0  0
   65.1396  -34.7304   26.1077 H   0  0  0  0  0  0  0  0  0  0  0  0
   65.1397  -35.7597   24.6711 H   0  0  0  0  0  0  0  0  0  0  0  0
   64.8993  -37.7834   26.1210 H   0  0  0  0  0  0  0  0  0  0  0  0
   64.8993  -36.7541   27.5576 H   0  0  0  0  0  0  0  0  0  0  0  0
   67.1663  -35.8954   26.9423 H   0  0  0  0  0  0  0  0  0  0  0  0
   67.1663  -36.9247   25.5057 H   0  0  0  0  0  0  0  0  0  0  0  0
   66.9260  -38.9484   26.9557 H   0  0  0  0  0  0  0  0  0  0  0  0
   66.9259  -37.9190   28.3923 H   0  0  0  0  0  0  0  0  0  0  0  0
   69.1930  -37.0603   27.7770 H   0  0  0  0  0  0  0  0  0  0  0  0
   69.1930  -38.0896   26.3404 H   0  0  0  0  0  0  0  0  0  0  0  0
   68.9538  -40.1134   27.7895 H   0  0  0  0  0  0  0  0  0  0  0  0
   68.9514  -39.0847   29.2266 H   0  0  0  0  0  0  0  0  0  0  0  0
   71.2184  -38.2239   28.6141 H   0  0  0  0  0  0  0  0  0  0  0  0
   71.2208  -39.2526   27.1771 H   0  0  0  0  0  0  0  0  0  0  0  0
   70.9804  -41.2771   28.6258 H   0  0  0  0  0  0  0  0  0  0  0  0
   70.9781  -40.2485   30.0629 H   0  0  0  0  0  0  0  0  0  0  0  0
   73.2451  -39.3877   29.4505 H   0  0  0  0  0  0  0  0  0  0  0  0
   73.2475  -40.4163   28.0134 H   0  0  0  0  0  0  0  0  0  0  0  0
   73.0071  -42.4409   29.4621 H   0  0  0  0  0  0  0  0  0  0  0  0
   73.0048  -41.4123   30.8992 H   0  0  0  0  0  0  0  0  0  0  0  0
   75.2718  -40.5514   30.2868 H   0  0  0  0  0  0  0  0  0  0  0  0
   75.2742  -41.5801   28.8496 H   0  0  0  0  0  0  0  0  0  0  0  0
   75.0351  -43.6047   30.2975 H   0  0  0  0  0  0  0  0  0  0  0  0
   75.0304  -42.5768   31.7351 H   0  0  0  0  0  0  0  0  0  0  0  0
   77.2975  -41.7142   31.1257 H   0  0  0  0  0  0  0  0  0  0  0  0
   77.3022  -42.7421   29.6882 H   0  0  0  0  0  0  0  0  0  0  0  0
   77.0621  -44.7678   31.1357 H   0  0  0  0  0  0  0  0  0  0  0  0
   77.0574  -43.7397   32.5734 H   0  0  0  0  0  0  0  0  0  0  0  0
   79.3250  -42.8781   31.9653 H   0  0  0  0  0  0  0  0  0  0  0  0
   79.3297  -43.9038   30.5267 H   0  0  0  0  0  0  0  0  0  0  0  0
   79.0899  -45.9316   31.9731 H   0  0  0  0  0  0  0  0  0  0  0  0
   79.0876  -44.9059   33.4105 H   0  0  0  0  0  0  0  0  0  0  0  0
   81.3654  -44.0551   32.8076 H   0  0  0  0  0  0  0  0  0  0  0  0
   81.3678  -45.0813   31.3696 H   0  0  0  0  0  0  0  0  0  0  0  0
   81.1442  -46.0796   34.2573 H   0  0  0  0  0  0  0  0  0  0  0  0
   82.5908  -46.1693   33.2332 H   0  0  0  0  0  0  0  0  0  0  0  0
   81.1466  -47.1109   32.8122 H   0  0  0  0  0  0  0  0  0  0  0  0
  1  2  1  0  0  0  0
  1 82  1  0  0  0  0
  1 83  1  0  0  0  0
  1 84  1  0  0  0  0
  2  3  1  0  0  0  0
  2 85  1  0  0  0  0
  2 86  1  0  0  0  0
  3  4  1  0  0  0  0
  3 87  1  0  0  0  0
  3 88  1  0  0  0  0
  4  5  1  0  0  0  0
  4 89  1  0  0  0  0
  4 90  1  0  0  0  0
  5  6  1  0  0  0  0
  5 91  1  0  0  0  0
  5 92  1  0  0  0  0
  6  7  1  0  0  0  0
  6 93  1  0  0  0  0
  6 94  1  0  0  0  0
  7  8  1  0  0  0  0
  7 95  1  0  0  0  0
  8  9  1  0  0  0  0
  8 96  1  0  0  0  0
  9 10  1  0  0  0  0
  9 97  1  0  0  0  0
 10 11  1  0  0  0  0
 10 98  1  0  0  0  0
 11 12  1  0  0  0  0
 11 99  1  0  0  0  0
 12 13  1  0  0  0  0
 12100  1  0  0  0  0
 13 14  1  0  0  0  0
 13101  1  0  0  0  0
 14 15  1  0  0  0  0
 14102  1  0  0  0  0
 15 16  1  0  0  0  0
 15103  1  0  0  0  0
 16 17  1  0  0  0  0
 16104  1  0  0  0  0
 17 18  1  0  0  0  0
 17105  1  0  0  0  0
 17106  1  0  0  0  0
 18 19  1  0  0  0  0
 18107  1  0  0  0  0
 18108  1  0  0  0  0
 19 20  1  0  0  0  0
 19109  1  0  0  0  0
 19110  1  0  0  0  0
 20 21  1  0  0  0  0
 20111  1  0  0  0  0
 20112  1  0  0  0  0
 21 22  1  0  0  0  0
 21113  1  0  0  0  0
 21114  1  0  0  0  0
 22 23  1  0  0  0  0
 22115  1  0  0  0  0
 22116  1  0  0  0  0
 23 24  1  0  0  0  0
 23117  1  0  0  0  0
 23118  1  0  0  0  0
 24 25  1  0  0  0  0
 24119  1  0  0  0  0
 24120  1  0  0  0  0
 25 26  1  0  0  0  0
 25121  1  0  0  0  0
 25122  1  0  0  0  0
 26 27  1  0  0  0  0
 26123  1  0  0  0  0
 26124  1  0  0  0  0
 27 28  1  0  0  0  0
 27125  1  0  0  0  0
 27126  1  0  0  0  0
 28 29  1  0  0  0  0
 28127  1  0  0  0  0
 28128  1  0  0  0  0
 29 30  1  0  0  0  0
 29129  1  0  0  0  0
 29130  1  0  0  0  0
 30 31  1  0  0  0  0
 30131  1  0  0  0  0
 30132  1  0  0  0  0
 31 32  1  0  0  0  0
 31133  1  0  0  0  0
 31134  1  0  0  0  0
 32 33  1  0  0  0  0
 32135  1  0  0  0  0
 32136  1  0  0  0  0
 33 34  1  0  0  0  0
 33137  1  0  0  0  0
 33138  1  0  0  0  0
 34 35  1  0  0  0  0
 34139  1  0  0  0  0
 34140  1  0  0  0  0
 35 36  1  0  0  0  0
 35141  1  0  0  0  0
 35142  1  0  0  0  0
 36 37  1  0  0  0  0
 36143  1  0  0  0  0
 36144  1  0  0  0  0
 37 38  1  0  0  0  0
 37145  1  0  0  0  0
 37146  1  0  0  0  0
 38 39  1  0  0  0  0
 38147  1  0  0  0  0
 38148  1  0  0  0  0
 39 40  1  0  0  0  0
 39149  1  0  0  0  0
 39150  1  0  0  0  0
 40 41  1  0  0  0  0
 40151  1  0  0  0  0
 40152  1  0  0  0  0
 41 42  1  0  0  0  0
 41153  1  0  0  0  0
 41154  1  0  0  0  0
 42 43  1  0  0  0  0
 42155  1  0  0  0  0
 42156  1  0  0  0  0
 43 44  1  0  0  0  0
 43157  1  0  0  0  0
 43158  1  0  0  0  0
 44 45  1  0  0  0  0
 44159  1  0  0  0  0
 44160  1  0  0  0  0
 45 46  1  0  0  0  0
 45161  1  0  0  0  0
 45162  1  0  0  0  0
 46 47  1  0  0  0  0
 46163  1  0  0  0  0
 46164  1  0  0  0  0
 47 48  1  0  0  0  0
 47165  1  0  0  0  0
 47166  1  0  0  0  0
 48 49  1  0  0  0  0
 48167  1  0  0  0  0
 48168  1  0  0  0  0
 49 50  1  0  0  0  0
 49169  1  0  0  0  0
 49170  1  0  0  0  0
 50 51  1  0  0  0  0
 50171  1  0  0  0  0
 50172  1  0  0  0  0
 51 52  1  0  0  0  0
 51173  1  0  0  0  0
 51174  1  0  0  0  0
 52 53  1  0  0  0  0
 52175  1  0  0  0  0
 52176  1  0  0  0  0
 53 54  1  0  0  0  0
 53177  1  0  0  0  0
 53178  1  0  0  0  0
 54 55  1  0  0  0  0
 54179  1  0  0  0  0
 54180  1  0  0  0  0
 55 56  1  0  0  0  0
 55181  1  0  0  0  0
 55182  1  0  0  0  0
 56 57  1  0  0  0  0
 56183  1  0  0  0  0
 56184  1  0  0  0  0
 57 58  1  0  0  0  0
 57185  1  0  0  0  0
 57186  1  0  0  0  0
 58 59  1  0  0  0  0
 58187  1  0  0  0  0
 58188  1  0  0  0  0
 59 60  1  0  0  0  0
 59189  1  0  0  0  0
 59190  1  0  0  0  0
 60 61  1  0  0  0  0
 60191  1  0  0  0  0
 60192  1  0  0  0  0
 61 62  1  0  0  0  0
 61193  1  0  0  0  0
 61194  1  0  0  0  0
 62 63  1  0  0  0  0
 62195  1  0  0  0  0
 62196  1  0  0  0  0
 63 64  1  0  0  0  0
 63197  1  0  0  0  0
 63198  1  0  0  0  0
 64 65  1  0  0  0  0
 64199  1  0  0  0  0
 64200  1  0  0  0  0
 65 66  1  0  0  0  0
 65201  1  0  0  0  0
 65202  1  0  0  0  0
 66 67  1  0  0  0  0
 66203  1  0  0  0  0
 66204  1  0  0  0  0
 67 68  1  0  0  0  0
 67205  1  0  0  0  0
 67206  1  0  0  0  0
 68 69  1  0  0  0  0
 68207  1  0  0  0  0
 68208  1  0  0  0  0
 69 70  1  0  0  0  0
 69209  1  0  0  0  0
 69210  1  0  0  0  0
 70 71  1  0  0  0  0
 70211  1  0  0  0  0
 70212  1  0  0  0  0
 71 72  1  0  0  0  0
 71213  1  0  0  0  0
 71214  1  0  0  0  0
 72 73  1  0  0  0  0
 72215  1  0  0  0  0
 72216  1  0  0  0  0
 73 74  1  0  0  0  0
 73217  1  0  0  0  0
 73218  1  0  0  0  0
 74 75  1  0  0  0  0
 74219  1  0  0  0  0
 74220  1  0  0  0  0
 75 76  1  0  0  0  0
 75221  1  0  0  0  0
 75222  1  0  0  0  0
 76 77  1  0  0  0  0
 76223  1  0  0  0  0
 76224  1  0  0  0  0
 77 78  1  0  0  0  0
 77225  1  0  0  0  0
 77226  1  0  0  0  0
 78 79  1  0  0  0  0
 78227  1  0  0  0  0
 78228  1  0  0  0  0
 79 80  1  0  0  0  0
 79229  1  0  0  0  0
 79230  1  0  0  0  0
 80 81  1  0  0  0  0
 80231  1  0  0  0  0
 80232  1  0  0  0  0
 81233  1  0  0  0  0
 81234  1  0  0  0  0
 81235  1  0  0  0  0
M  END
$$$$
