
 OpenBabel04232216583D

166165  0  0  0  0  0  0  0  0999 V2000
   18.3243   22.1607    9.3331 N   0  0  0  0  0  0  0  0  0  0  0  0
   17.8553   20.9761   10.0175 C   0  0  0  0  0  0  0  0  0  0  0  0
   18.5707   19.4558    9.2781 S   0  0  0  0  0  0  0  0  0  0  0  0
   20.3820   19.6620    9.5000 C   0  0  0  0  0  0  0  0  0  0  0  0
   20.7416   19.7422   10.9691 C   0  0  0  0  0  0  0  0  0  0  0  0
   22.2001   19.8439   11.1232 N   0  0  0  0  0  0  0  0  0  0  0  0
   22.4921   19.9524   12.4998 N   0  0  0  0  0  0  0  0  0  0  0  0
   23.8970   20.0739   12.6796 N   0  0  0  0  0  0  0  0  0  0  0  0
   24.2057   20.1708   14.0584 N   0  0  0  0  0  0  0  0  0  0  0  0
   23.7484   18.9933   14.7411 N   0  0  0  0  0  0  0  0  0  0  0  0
   24.3881   17.8304   14.1867 N   0  0  0  0  0  0  0  0  0  0  0  0
   25.7995   17.9422   14.3254 N   0  0  0  0  0  0  0  0  0  0  0  0
   26.1242   18.0510   15.6869 N   0  0  0  0  0  0  0  0  0  0  0  0
   25.6646   16.9030   16.3894 N   0  0  0  0  0  0  0  0  0  0  0  0
   26.2723   15.7346   15.8374 N   0  0  0  0  0  0  0  0  0  0  0  0
   27.6999   15.8167   15.9718 N   0  0  0  0  0  0  0  0  0  0  0  0
   28.0620   15.9325   17.3505 N   0  0  0  0  0  0  0  0  0  0  0  0
   27.5895   14.7855   18.0699 N   0  0  0  0  0  0  0  0  0  0  0  0
   28.1735   13.5898   17.5185 N   0  0  0  0  0  0  0  0  0  0  0  0
   29.6075   13.6706   17.6116 N   0  0  0  0  0  0  0  0  0  0  0  0
   29.9701   13.8118   18.9946 N   0  0  0  0  0  0  0  0  0  0  0  0
   29.4874   12.6783   19.7192 N   0  0  0  0  0  0  0  0  0  0  0  0
   30.0605   11.4838   19.1845 N   0  0  0  0  0  0  0  0  0  0  0  0
   31.4689   11.5415   19.2659 N   0  0  0  0  0  0  0  0  0  0  0  0
   31.8631   11.6816   20.6135 N   0  0  0  0  0  0  0  0  0  0  0  0
   31.3794   10.5752   21.3595 N   0  0  0  0  0  0  0  0  0  0  0  0
   31.9337    9.3574   20.8379 N   0  0  0  0  0  0  0  0  0  0  0  0
   33.3703    9.3783   20.9012 N   0  0  0  0  0  0  0  0  0  0  0  0
   33.8113    9.5166   22.2640 N   0  0  0  0  0  0  0  0  0  0  0  0
   33.2915    8.4278   23.0276 N   0  0  0  0  0  0  0  0  0  0  0  0
   33.7996    7.2199   22.4580 N   0  0  0  0  0  0  0  0  0  0  0  0
   35.2266    7.2606   22.5015 N   0  0  0  0  0  0  0  0  0  0  0  0
   35.6540    7.4187   23.8513 N   0  0  0  0  0  0  0  0  0  0  0  0
   35.1561    6.3406   24.6262 N   0  0  0  0  0  0  0  0  0  0  0  0
   35.6765    5.0997   24.1123 N   0  0  0  0  0  0  0  0  0  0  0  0
   37.1122    5.0993   24.1496 N   0  0  0  0  0  0  0  0  0  0  0  0
   37.6022    5.2339   25.5001 N   0  0  0  0  0  0  0  0  0  0  0  0
   37.1020    4.1684   26.3093 N   0  0  0  0  0  0  0  0  0  0  0  0
   37.5783    2.9320   25.7686 N   0  0  0  0  0  0  0  0  0  0  0  0
   38.9992    2.9519   25.7577 N   0  0  0  0  0  0  0  0  0  0  0  0
   39.4786    3.1154   27.0928 N   0  0  0  0  0  0  0  0  0  0  0  0
   38.9971    2.0534   27.8986 N   0  0  0  0  0  0  0  0  0  0  0  0
   39.4578    0.8129   27.3864 N   0  0  0  0  0  0  0  0  0  0  0  0
   40.8892    0.7870   27.3643 N   0  0  0  0  0  0  0  0  0  0  0  0
   41.4007    0.9589   28.6971 N   0  0  0  0  0  0  0  0  0  0  0  0
   40.9173   -0.0890   29.5409 N   0  0  0  0  0  0  0  0  0  0  0  0
   41.3419   -1.3340   28.9963 N   0  0  0  0  0  0  0  0  0  0  0  0
   42.7731   -1.3409   28.9521 N   0  0  0  0  0  0  0  0  0  0  0  0
   43.2950   -1.1532   30.2732 N   0  0  0  0  0  0  0  0  0  0  0  0
   42.8106   -2.1894   31.1252 N   0  0  0  0  0  0  0  0  0  0  0  0
   43.2687   -3.4763   30.6441 N   0  0  0  0  0  0  0  0  0  0  0  0
   44.7092   -3.5204   30.5786 N   0  0  0  0  0  0  0  0  0  0  0  0
   45.2724   -3.3309   31.8889 N   0  0  0  0  0  0  0  0  0  0  0  0
   44.7814   -4.3412   32.7453 N   0  0  0  0  0  0  0  0  0  0  0  0
   45.1793   -5.6061   32.2373 N   0  0  0  0  0  0  0  0  0  0  0  0
   46.5944   -5.6514   32.1458 N   0  0  0  0  0  0  0  0  0  0  0  0
   47.1557   -5.4441   33.4363 N   0  0  0  0  0  0  0  0  0  0  0  0
   46.7040   -6.4629   34.3387 N   0  0  0  0  0  0  0  0  0  0  0  0
   47.0891   -7.7624   33.8469 N   0  0  0  0  0  0  0  0  0  0  0  0
   48.5148   -7.7994   33.7287 N   0  0  0  0  0  0  0  0  0  0  0  0
   49.0942   -7.5705   35.0270 N   0  0  0  0  0  0  0  0  0  0  0  0
   48.6186   -8.5717   35.9430 N   0  0  0  0  0  0  0  0  0  0  0  0
   49.0039   -9.8759   35.4675 N   0  0  0  0  0  0  0  0  0  0  0  0
   50.4390   -9.9599   35.3496 N   0  0  0  0  0  0  0  0  0  0  0  0
   51.0493   -9.7304   36.6289 N   0  0  0  0  0  0  0  0  0  0  0  0
   50.5992  -10.7124   37.5565 N   0  0  0  0  0  0  0  0  0  0  0  0
   50.9331  -11.9919   37.0661 N   0  0  0  0  0  0  0  0  0  0  0  0
   52.3477  -12.0733   36.9269 N   0  0  0  0  0  0  0  0  0  0  0  0
   52.9771  -11.8363   38.1915 N   0  0  0  0  0  0  0  0  0  0  0  0
   52.5137  -12.7993   39.1421 N   0  0  0  0  0  0  0  0  0  0  0  0
   52.8532  -14.1175   38.6614 N   0  0  0  0  0  0  0  0  0  0  0  0
   54.2989  -14.2266   38.5087 N   0  0  0  0  0  0  0  0  0  0  0  0
   54.9493  -13.9798   39.7703 N   0  0  0  0  0  0  0  0  0  0  0  0
   54.4870  -14.9307   40.7327 N   0  0  0  0  0  0  0  0  0  0  0  0
   54.8080  -16.2518   40.2665 N   0  0  0  0  0  0  0  0  0  0  0  0
   56.2208  -16.3619   40.0820 N   0  0  0  0  0  0  0  0  0  0  0  0
   56.8699  -16.1089   41.3203 N   0  0  0  0  0  0  0  0  0  0  0  0
   56.4401  -17.0645   42.3008 N   0  0  0  0  0  0  0  0  0  0  0  0
   56.7387  -18.4014   41.8679 N   0  0  0  0  0  0  0  0  0  0  0  0
   58.1539  -18.5505   41.6661 N   0  0  0  0  0  0  0  0  0  0  0  0
   58.8659  -18.2884   42.8968 N   0  0  0  0  0  0  0  0  0  0  0  0
   17.8828   22.9908    9.7255 H   0  0  0  0  0  0  0  0  0  0  0  0
   18.0582   22.1076    8.3527 H   0  0  0  0  0  0  0  0  0  0  0  0
   16.7560   20.9074    9.9382 H   0  0  0  0  0  0  0  0  0  0  0  0
   18.0886   21.0367   11.0863 H   0  0  0  0  0  0  0  0  0  0  0  0
   20.7474   20.5433    8.9634 H   0  0  0  0  0  0  0  0  0  0  0  0
   20.8773   18.7785    9.0531 H   0  0  0  0  0  0  0  0  0  0  0  0
   20.3840   18.8387   11.4772 H   0  0  0  0  0  0  0  0  0  0  0  0
   20.2505   20.6115   11.4057 H   0  0  0  0  0  0  0  0  0  0  0  0
   22.5142   20.6964   10.6627 H   0  0  0  0  0  0  0  0  0  0  0  0
   22.1778   19.1071   12.9806 H   0  0  0  0  0  0  0  0  0  0  0  0
   24.2356   20.9023   12.2057 H   0  0  0  0  0  0  0  0  0  0  0  0
   23.7585   20.9992   14.4529 H   0  0  0  0  0  0  0  0  0  0  0  0
   22.7313   18.9149   14.6381 H   0  0  0  0  0  0  0  0  0  0  0  0
   24.1835   17.7466   13.1963 H   0  0  0  0  0  0  0  0  0  0  0  0
   26.1496   18.7644   13.8511 H   0  0  0  0  0  0  0  0  0  0  0  0
   25.6995   18.8616   16.1186 H   0  0  0  0  0  0  0  0  0  0  0  0
   24.6484   16.8157   16.3037 H   0  0  0  0  0  0  0  0  0  0  0  0
   26.0243   15.6606   14.8400 H   0  0  0  0  0  0  0  0  0  0  0  0
   28.0275   16.6541   15.4831 H   0  0  0  0  0  0  0  0  0  0  0  0
   27.6185   16.7575   17.7450 H   0  0  0  0  0  0  0  0  0  0  0  0
   26.5812   14.7300   17.9544 H   0  0  0  0  0  0  0  0  0  0  0  0
   27.9222   13.5388   16.5340 H   0  0  0  0  0  0  0  0  0  0  0  0
   29.9169   14.4977   17.0914 H   0  0  0  0  0  0  0  0  0  0  0  0
   29.5409   14.6678   19.3656 H   0  0  0  0  0  0  0  0  0  0  0  0
   28.4750   12.6075   19.6388 H   0  0  0  0  0  0  0  0  0  0  0  0
   29.8017   11.3831   18.2069 H   0  0  0  0  0  0  0  0  0  0  0  0
   31.8244   12.3364   18.7488 H   0  0  0  0  0  0  0  0  0  0  0  0
   31.4673   12.5333   21.0106 H   0  0  0  0  0  0  0  0  0  0  0  0
   30.3501   10.5495   21.2818 H   0  0  0  0  0  0  0  0  0  0  0  0
   31.6551    9.2870   19.8528 H   0  0  0  0  0  0  0  0  0  0  0  0
   33.6795   10.1914   20.3591 H   0  0  0  0  0  0  0  0  0  0  0  0
   33.3889   10.3878   22.5997 H   0  0  0  0  0  0  0  0  0  0  0  0
   32.2680    8.4592   22.9324 H   0  0  0  0  0  0  0  0  0  0  0  0
   33.4997    7.1769   21.4808 H   0  0  0  0  0  0  0  0  0  0  0  0
   35.5637    8.0575   21.9750 H   0  0  0  0  0  0  0  0  0  0  0  0
   35.2849    8.2748   24.2427 H   0  0  0  0  0  0  0  0  0  0  0  0
   34.1348    6.3117   24.6072 H   0  0  0  0  0  0  0  0  0  0  0  0
   35.3830    4.9934   23.1341 H   0  0  0  0  0  0  0  0  0  0  0  0
   37.4712    5.8769   23.5950 H   0  0  0  0  0  0  0  0  0  0  0  0
   37.2403    6.1133   25.8656 H   0  0  0  0  0  0  0  0  0  0  0  0
   36.0787    4.2016   26.2654 H   0  0  0  0  0  0  0  0  0  0  0  0
   37.2652    2.8618   24.8037 H   0  0  0  0  0  0  0  0  0  0  0  0
   39.3337    3.7336   25.2001 H   0  0  0  0  0  0  0  0  0  0  0  0
   39.1343    4.0149   27.4498 H   0  0  0  0  0  0  0  0  0  0  0  0
   37.9765    2.0467   27.8961 H   0  0  0  0  0  0  0  0  0  0  0  0
   39.1275    0.6917   26.4312 H   0  0  0  0  0  0  0  0  0  0  0  0
   41.2039    1.5660   26.7665 H   0  0  0  0  0  0  0  0  0  0  0  0
   41.0390    1.8558   29.0409 H   0  0  0  0  0  0  0  0  0  0  0  0
   39.9012   -0.0583   29.5193 H   0  0  0  0  0  0  0  0  0  0  0  0
   40.9667   -1.4189   28.0486 H   0  0  0  0  0  0  0  0  0  0  0  0
   43.1037   -0.5715   28.3774 H   0  0  0  0  0  0  0  0  0  0  0  0
   42.9716   -0.2735   30.6580 H   0  0  0  0  0  0  0  0  0  0  0  0
   41.7866   -2.1735   31.1634 H   0  0  0  0  0  0  0  0  0  0  0  0
   42.9104   -3.6150   29.6973 H   0  0  0  0  0  0  0  0  0  0  0  0
   45.0174   -2.7668   29.9456 H   0  0  0  0  0  0  0  0  0  0  0  0
   44.9424   -2.4315   32.2393 H   0  0  0  0  0  0  0  0  0  0  0  0
   43.7579   -4.2992   32.7769 H   0  0  0  0  0  0  0  0  0  0  0  0
   44.7911   -5.7269   31.3000 H   0  0  0  0  0  0  0  0  0  0  0  0
   46.9125   -4.9038   31.5229 H   0  0  0  0  0  0  0  0  0  0  0  0
   46.8444   -4.5323   33.7819 H   0  0  0  0  0  0  0  0  0  0  0  0
   45.6825   -6.4163   34.3892 H   0  0  0  0  0  0  0  0  0  0  0  0
   46.6844   -7.8674   32.9150 H   0  0  0  0  0  0  0  0  0  0  0  0
   48.8027   -7.0510   33.0929 H   0  0  0  0  0  0  0  0  0  0  0  0
   48.7851   -6.6634   35.3705 H   0  0  0  0  0  0  0  0  0  0  0  0
   47.5965   -8.5146   36.0043 H   0  0  0  0  0  0  0  0  0  0  0  0
   48.6005  -10.0328   34.5449 H   0  0  0  0  0  0  0  0  0  0  0  0
   50.7397   -9.2372   34.6773 H   0  0  0  0  0  0  0  0  0  0  0  0
   50.7822   -8.7971   36.9661 H   0  0  0  0  0  0  0  0  0  0  0  0
   49.5826  -10.6593   37.6318 H   0  0  0  0  0  0  0  0  0  0  0  0
   50.4777  -12.1292   36.1532 H   0  0  0  0  0  0  0  0  0  0  0  0
   52.6668  -11.3629   36.2630 H   0  0  0  0  0  0  0  0  0  0  0  0
   52.6982  -10.9112   38.5240 H   0  0  0  0  0  0  0  0  0  0  0  0
   51.4915  -12.7011   39.2105 H   0  0  0  0  0  0  0  0  0  0  0  0
   52.4039  -14.2467   37.7448 H   0  0  0  0  0  0  0  0  0  0  0  0
   54.6013  -13.5077   37.8470 H   0  0  0  0  0  0  0  0  0  0  0  0
   54.6947  -13.0469   40.0886 H   0  0  0  0  0  0  0  0  0  0  0  0
   53.4704  -14.8290   40.8336 H   0  0  0  0  0  0  0  0  0  0  0  0
   54.3299  -16.4125   39.3667 H   0  0  0  0  0  0  0  0  0  0  0  0
   56.5355  -15.6730   39.3776 H   0  0  0  0  0  0  0  0  0  0  0  0
   56.6554  -15.1594   41.6552 H   0  0  0  0  0  0  0  0  0  0  0  0
   55.4243  -16.9838   42.4116 H   0  0  0  0  0  0  0  0  0  0  0  0
   56.2592  -18.5399   40.9712 H   0  0  0  0  0  0  0  0  0  0  0  0
   58.4264  -17.8454   40.9735 H   0  0  0  0  0  0  0  0  0  0  0  0
   58.4717  -18.9247   43.5883 H   0  0  0  0  0  0  0  0  0  0  0  0
   58.5756  -17.3422   43.1908 H   0  0  0  0  0  0  0  0  0  0  0  0
  1  2  1  0  0  0  0
  1 82  1  0  0  0  0
  1 83  1  0  0  0  0
  2  3  1  0  0  0  0
  2 84  1  0  0  0  0
  2 85  1  0  0  0  0
  3  4  1  0  0  0  0
  4  5  1  0  0  0  0
  4 86  1  0  0  0  0
  4 87  1  0  0  0  0
  5  6  1  0  0  0  0
  5 88  1  0  0  0  0
  5 89  1  0  0  0  0
  6  7  1  0  0  0  0
  6 90  1  0  0  0  0
  7  8  1  0  0  0  0
  7 91  1  0  0  0  0
  8  9  1  0  0  0  0
  8 92  1  0  0  0  0
  9 10  1  0  0  0  0
  9 93  1  0  0  0  0
 10 11  1  0  0  0  0
 10 94  1  0  0  0  0
 11 12  1  0  0  0  0
 11 95  1  0  0  0  0
 12 13  1  0  0  0  0
 12 96  1  0  0  0  0
 13 14  1  0  0  0  0
 13 97  1  0  0  0  0
 14 15  1  0  0  0  0
 14 98  1  0  0  0  0
 15 16  1  0  0  0  0
 15 99  1  0  0  0  0
 16 17  1  0  0  0  0
 16100  1  0  0  0  0
 17 18  1  0  0  0  0
 17101  1  0  0  0  0
 18 19  1  0  0  0  0
 18102  1  0  0  0  0
 19 20  1  0  0  0  0
 19103  1  0  0  0  0
 20 21  1  0  0  0  0
 20104  1  0  0  0  0
 21 22  1  0  0  0  0
 21105  1  0  0  0  0
 22 23  1  0  0  0  0
 22106  1  0  0  0  0
 23 24  1  0  0  0  0
 23107  1  0  0  0  0
 24 25  1  0  0  0  0
 24108  1  0  0  0  0
 25 26  1  0  0  0  0
 25109  1  0  0  0  0
 26 27  1  0  0  0  0
 26110  1  0  0  0  0
 27 28  1  0  0  0  0
 27111  1  0  0  0  0
 28 29  1  0  0  0  0
 28112  1  0  0  0  0
 29 30  1  0  0  0  0
 29113  1  0  0  0  0
 30 31  1  0  0  0  0
 30114  1  0  0  0  0
 31 32  1  0  0  0  0
 31115  1  0  0  0  0
 32 33  1  0  0  0  0
 32116  1  0  0  0  0
 33 34  1  0  0  0  0
 33117  1  0  0  0  0
 34 35  1  0  0  0  0
 34118  1  0  0  0  0
 35 36  1  0  0  0  0
 35119  1  0  0  0  0
 36 37  1  0  0  0  0
 36120  1  0  0  0  0
 37 38  1  0  0  0  0
 37121  1  0  0  0  0
 38 39  1  0  0  0  0
 38122  1  0  0  0  0
 39 40  1  0  0  0  0
 39123  1  0  0  0  0
 40 41  1  0  0  0  0
 40124  1  0  0  0  0
 41 42  1  0  0  0  0
 41125  1  0  0  0  0
 42 43  1  0  0  0  0
 42126  1  0  0  0  0
 43 44  1  0  0  0  0
 43127  1  0  0  0  0
 44 45  1  0  0  0  0
 44128  1  0  0  0  0
 45 46  1  0  0  0  0
 45129  1  0  0  0  0
 46 47  1  0  0  0  0
 46130  1  0  0  0  0
 47 48  1  0  0  0  0
 47131  1  0  0  0  0
 48 49  1  0  0  0  0
 48132  1  0  0  0  0
 49 50  1  0  0  0  0
 49133  1  0  0  0  0
 50 51  1  0  0  0  0
 50134  1  0  0  0  0
 51 52  1  0  0  0  0
 51135  1  0  0  0  0
 52 53  1  0  0  0  0
 52136  1  0  0  0  0
 53 54  1  0  0  0  0
 53137  1  0  0  0  0
 54 55  1  0  0  0  0
 54138  1  0  0  0  0
 55 56  1  0  0  0  0
 55139  1  0  0  0  0
 56 57  1  0  0  0  0
 56140  1  0  0  0  0
 57 58  1  0  0  0  0
 57141  1  0  0  0  0
 58 59  1  0  0  0  0
 58142  1  0  0  0  0
 59 60  1  0  0  0  0
 59143  1  0  0  0  0
 60 61  1  0  0  0  0
 60144  1  0  0  0  0
 61 62  1  0  0  0  0
 61145  1  0  0  0  0
 62 63  1  0  0  0  0
 62146  1  0  0  0  0
 63 64  1  0  0  0  0
 63147  1  0  0  0  0
 64 65  1  0  0  0  0
 64148  1  0  0  0  0
 65 66  1  0  0  0  0
 65149  1  0  0  0  0
 66 67  1  0  0  0  0
 66150  1  0  0  0  0
 67 68  1  0  0  0  0
 67151  1  0  0  0  0
 68 69  1  0  0  0  0
 68152  1  0  0  0  0
 69 70  1  0  0  0  0
 69153  1  0  0  0  0
 70 71  1  0  0  0  0
 70154  1  0  0  0  0
 71 72  1  0  0  0  0
 71155  1  0  0  0  0
 72 73  1  0  0  0  0
 72156  1  0  0  0  0
 73 74  1  0  0  0  0
 73157  1  0  0  0  0
 74 75  1  0  0  0  0
 74158  1  0  0  0  0
 75 76  1  0  0  0  0
 75159  1  0  0  0  0
 76 77  1  0  0  0  0
 76160  1  0  0  0  0
 77 78  1  0  0  0  0
 77161  1  0  0  0  0
 78 79  1  0  0  0  0
 78162  1  0  0  0  0
 79 80  1  0  0  0  0
 79163  1  0  0  0  0
 80 81  1  0  0  0  0
 80164  1  0  0  0  0
 81165  1  0  0  0  0
 81166  1  0  0  0  0
M  END
$$$$
