
 OpenBabel04232216463D

 64 65  0  0  0  0  0  0  0  0999 V2000
    1.7786    0.0795   -1.1101 C   0  0  0  0  0  0  0  0  0  0  0  0
    3.0900    0.7449   -0.8543 C   0  0  0  0  0  0  0  0  0  0  0  0
    3.2588    1.4194    0.4382 C   0  0  0  0  0  3  0  0  0  0  0  0
    4.6771    1.3044    0.6234 C   0  0  0  0  0  0  0  0  0  0  0  0
    4.9674   -0.1286    1.1469 C   0  0  0  0  0  0  0  0  0  0  0  0
    5.2099   -0.2581    2.6332 C   0  0  0  0  0  0  0  0  0  0  0  0
    5.6466   -1.6994    2.9047 C   0  0  0  0  0  0  0  0  0  0  0  0
    5.8323   -1.9111    4.3922 C   0  0  0  0  0  0  0  0  0  0  0  0
    6.2236   -3.3511    4.6932 C   0  0  0  0  0  0  0  0  0  0  0  0
    6.3834   -3.5228    6.1933 C   0  0  0  0  0  0  0  0  0  0  0  0
    6.7620   -4.9552    6.5401 C   0  0  0  0  0  0  0  0  0  0  0  0
    6.9118   -5.1116    8.0465 C   0  0  0  0  0  0  0  0  0  0  0  0
    7.2506   -6.5352    8.3786 C   0  0  0  0  0  0  0  0  0  0  0  0
    8.2441   -6.8550    9.0152 O   0  0  0  0  0  0  0  0  0  0  0  0
    5.2074    1.5496   -0.8136 C   0  0  0  0  0  0  0  0  0  0  0  0
    5.0888    2.8960   -1.6524 C   0  0  0  0  0  0  0  0  0  0  0  0
    4.3643    4.1201   -1.1032 C   0  0  0  0  0  0  0  0  0  0  0  0
    5.2882    5.2112   -0.5530 C   0  0  0  0  0  0  0  0  0  0  0  0
    6.1873    4.7336    0.5832 C   0  0  0  0  0  0  0  0  0  0  0  0
    7.6095    4.4421    0.0976 C   0  0  0  0  0  0  0  0  0  0  0  0
    8.3994    3.5820    1.0760 C   0  0  0  0  0  0  0  0  0  0  0  0
    8.7484    2.1974    0.5042 C   0  0  0  0  0  0  0  0  0  0  0  0
    7.5640    1.2322    0.4163 C   0  0  0  0  0  0  0  0  0  0  0  0
    6.7250    1.0944   -0.9089 C   0  0  0  0  0  0  0  0  0  0  0  0
    4.1996    0.6496   -1.5714 N   0  0  0  0  0  0  0  0  0  0  0  0
    1.1203    0.7567   -1.6580 H   0  0  0  0  0  0  0  0  0  0  0  0
    1.3021   -0.1570   -0.1535 H   0  0  0  0  0  0  0  0  0  0  0  0
    1.9202   -0.8546   -1.6552 H   0  0  0  0  0  0  0  0  0  0  0  0
    2.6581    2.2570    0.7498 H   0  0  0  0  0  0  0  0  0  0  0  0
    5.8121   -0.5795    0.6214 H   0  0  0  0  0  0  0  0  0  0  0  0
    4.1418   -0.8096    0.8874 H   0  0  0  0  0  0  0  0  0  0  0  0
    4.2923   -0.0271    3.1823 H   0  0  0  0  0  0  0  0  0  0  0  0
    5.9865    0.4335    2.9742 H   0  0  0  0  0  0  0  0  0  0  0  0
    6.5844   -1.9162    2.3780 H   0  0  0  0  0  0  0  0  0  0  0  0
    4.8963   -2.4005    2.5171 H   0  0  0  0  0  0  0  0  0  0  0  0
    4.8989   -1.6666    4.9116 H   0  0  0  0  0  0  0  0  0  0  0  0
    6.6052   -1.2286    4.7632 H   0  0  0  0  0  0  0  0  0  0  0  0
    7.1631   -3.5987    4.1797 H   0  0  0  0  0  0  0  0  0  0  0  0
    5.4565   -4.0355    4.3115 H   0  0  0  0  0  0  0  0  0  0  0  0
    5.4433   -3.2580    6.6921 H   0  0  0  0  0  0  0  0  0  0  0  0
    7.1504   -2.8311    6.5632 H   0  0  0  0  0  0  0  0  0  0  0  0
    7.7014   -5.2258    6.0419 H   0  0  0  0  0  0  0  0  0  0  0  0
    5.9960   -5.6418    6.1647 H   0  0  0  0  0  0  0  0  0  0  0  0
    5.9778   -4.8619    8.5566 H   0  0  0  0  0  0  0  0  0  0  0  0
    7.7005   -4.4551    8.4289 H   0  0  0  0  0  0  0  0  0  0  0  0
    6.5272   -7.2948    8.0286 H   0  0  0  0  0  0  0  0  0  0  0  0
    4.5721    2.6458   -2.5947 H   0  0  0  0  0  0  0  0  0  0  0  0
    6.0667    3.2146   -2.0246 H   0  0  0  0  0  0  0  0  0  0  0  0
    3.6011    3.8720   -0.3722 H   0  0  0  0  0  0  0  0  0  0  0  0
    3.8212    4.5790   -1.9451 H   0  0  0  0  0  0  0  0  0  0  0  0
    4.6518    6.0264   -0.1873 H   0  0  0  0  0  0  0  0  0  0  0  0
    5.8869    5.6375   -1.3683 H   0  0  0  0  0  0  0  0  0  0  0  0
    5.7444    3.8658    1.0823 H   0  0  0  0  0  0  0  0  0  0  0  0
    6.2452    5.5236    1.3421 H   0  0  0  0  0  0  0  0  0  0  0  0
    8.1261    5.4019   -0.0291 H   0  0  0  0  0  0  0  0  0  0  0  0
    7.6163    3.9763   -0.8889 H   0  0  0  0  0  0  0  0  0  0  0  0
    7.8757    3.4788    2.0351 H   0  0  0  0  0  0  0  0  0  0  0  0
    9.3406    4.0970    1.3074 H   0  0  0  0  0  0  0  0  0  0  0  0
    9.4565    1.7592    1.2232 H   0  0  0  0  0  0  0  0  0  0  0  0
    9.2830    2.2741   -0.4455 H   0  0  0  0  0  0  0  0  0  0  0  0
    6.9412    1.4736    1.2753 H   0  0  0  0  0  0  0  0  0  0  0  0
    7.9709    0.2319    0.6199 H   0  0  0  0  0  0  0  0  0  0  0  0
    6.7459    0.0390   -1.2146 H   0  0  0  0  0  0  0  0  0  0  0  0
    7.2614    1.6063   -1.7153 H   0  0  0  0  0  0  0  0  0  0  0  0
  1  2  1  0  0  0  0
  1 26  1  0  0  0  0
  1 27  1  0  0  0  0
  1 28  1  0  0  0  0
  2  3  1  0  0  0  0
  2 25  2  0  0  0  0
  3  4  1  0  0  0  0
  3 29  1  0  0  0  0
  4  5  1  0  0  0  0
  4 15  2  0  0  0  0
  5  6  1  0  0  0  0
  5 30  1  0  0  0  0
  5 31  1  0  0  0  0
  6  7  1  0  0  0  0
  6 32  1  0  0  0  0
  6 33  1  0  0  0  0
  7  8  1  0  0  0  0
  7 34  1  0  0  0  0
  7 35  1  0  0  0  0
  8  9  1  0  0  0  0
  8 36  1  0  0  0  0
  8 37  1  0  0  0  0
  9 10  1  0  0  0  0
  9 38  1  0  0  0  0
  9 39  1  0  0  0  0
 10 11  1  0  0  0  0
 10 40  1  0  0  0  0
 10 41  1  0  0  0  0
 11 12  1  0  0  0  0
 11 42  1  0  0  0  0
 11 43  1  0  0  0  0
 12 13  1  0  0  0  0
 12 44  1  0  0  0  0
 12 45  1  0  0  0  0
 13 14  2  0  0  0  0
 13 46  1  0  0  0  0
 15 16  1  0  0  0  0
 15 24  1  0  0  0  0
 15 25  1  0  0  0  0
 16 17  1  0  0  0  0
 16 47  1  0  0  0  0
 16 48  1  0  0  0  0
 17 18  1  0  0  0  0
 17 49  1  0  0  0  0
 17 50  1  0  0  0  0
 18 19  1  0  0  0  0
 18 51  1  0  0  0  0
 18 52  1  0  0  0  0
 19 20  1  0  0  0  0
 19 53  1  0  0  0  0
 19 54  1  0  0  0  0
 20 21  1  0  0  0  0
 20 55  1  0  0  0  0
 20 56  1  0  0  0  0
 21 22  1  0  0  0  0
 21 57  1  0  0  0  0
 21 58  1  0  0  0  0
 22 23  1  0  0  0  0
 22 59  1  0  0  0  0
 22 60  1  0  0  0  0
 23 24  1  0  0  0  0
 23 61  1  0  0  0  0
 23 62  1  0  0  0  0
 24 63  1  0  0  0  0
 24 64  1  0  0  0  0
M  END
$$$$
