
 OpenBabel04232217013D

175174  0  0  0  0  0  0  0  0999 V2000
   22.3117   -1.6818  -14.5278 O   0  0  0  0  0  0  0  0  0  0  0  0
   21.7915   -1.5026  -13.2221 C   0  0  0  0  0  0  0  0  0  0  0  0
   22.2367   -2.6622  -12.3897 C   0  0  0  0  0  0  0  0  0  0  0  0
   21.6992   -2.5043  -10.9923 C   0  0  0  0  0  0  0  0  0  0  0  0
   22.1354   -3.6607  -10.1362 C   0  0  0  0  0  0  0  0  0  0  0  0
   21.5889   -3.4764   -8.7630 C   0  0  0  0  0  0  0  0  0  0  0  0
   22.0616   -4.6047   -8.0835 O   0  0  0  0  0  0  0  0  0  0  0  0
   21.5374   -4.4128   -6.7915 O   0  0  0  0  0  0  0  0  0  0  0  0
   21.9524   -5.5050   -6.0000 O   0  0  0  0  0  0  0  0  0  0  0  0
   21.4407   -5.3194   -4.7061 O   0  0  0  0  0  0  0  0  0  0  0  0
   21.8583   -6.4126   -3.9339 O   0  0  0  0  0  0  0  0  0  0  0  0
   21.3382   -6.2397   -2.6430 O   0  0  0  0  0  0  0  0  0  0  0  0
   21.7687   -7.3305   -1.8722 O   0  0  0  0  0  0  0  0  0  0  0  0
   21.2727   -7.1493   -0.5747 O   0  0  0  0  0  0  0  0  0  0  0  0
   21.6588   -8.2633    0.1822 O   0  0  0  0  0  0  0  0  0  0  0  0
   21.1621   -8.0695    1.4872 N   0  0  0  0  0  0  0  0  0  0  0  0
   21.5872   -9.1314    2.2274 N   0  0  0  0  0  0  0  0  0  0  0  0
   21.0608   -8.9594    3.4783 N   0  0  0  0  0  0  0  0  0  0  0  0
   21.4894  -10.0252    4.2342 N   0  0  0  0  0  0  0  0  0  0  0  0
   20.9892   -9.8556    5.5238 N   0  0  0  0  0  0  0  0  0  0  0  0
   21.3413  -10.9422    6.3171 N   0  0  0  0  0  0  0  0  0  0  0  0
   20.8089  -10.7755    7.6251 N   0  0  0  0  0  0  0  0  0  0  0  0
   21.2298  -11.8448    8.3995 N   0  0  0  0  0  0  0  0  0  0  0  0
   22.6525  -11.7811    8.4447 O   0  0  0  0  0  0  0  0  0  0  0  0
   23.1145  -12.9371    9.0717 O   0  0  0  0  0  0  0  0  0  0  0  0
   24.5107  -12.9033    9.0287 O   0  0  0  0  0  0  0  0  0  0  0  0
   24.9567  -13.9807    9.7884 O   0  0  0  0  0  0  0  0  0  0  0  0
   26.3494  -13.9477    9.7729 O   0  0  0  0  0  0  0  0  0  0  0  0
   26.7789  -15.0361   10.5240 O   0  0  0  0  0  0  0  0  0  0  0  0
   28.1629  -15.0244   10.5123 O   0  0  0  0  0  0  0  0  0  0  0  0
   28.5910  -16.0993   11.2737 O   0  0  0  0  0  0  0  0  0  0  0  0
   29.9724  -16.0891   11.2564 O   0  0  0  0  0  0  0  0  0  0  0  0
   30.4112  -17.1704   12.0050 O   0  0  0  0  0  0  0  0  0  0  0  0
   31.8096  -17.1560   11.9994 O   0  0  0  0  0  0  0  0  0  0  0  0
   32.2457  -18.2539   12.7594 O   0  0  0  0  0  0  0  0  0  0  0  0
   33.6301  -18.1311   12.6738 C   0  0  0  0  0  0  0  0  0  0  0  0
   34.0979  -19.2884   13.4780 C   0  0  0  0  0  0  0  0  0  0  0  0
   35.5912  -19.2745   13.4708 C   0  0  0  0  0  0  0  0  0  0  0  0
   36.0615  -20.4455   14.2868 C   0  0  0  0  0  0  0  0  0  0  0  0
   37.5672  -20.4449   14.2865 C   0  0  0  0  0  0  0  0  0  0  0  0
   38.0602  -21.6161   15.1002 C   0  0  0  0  0  0  0  0  0  0  0  0
   39.5727  -21.6148   15.0993 C   0  0  0  0  0  0  0  0  0  0  0  0
   40.0791  -22.7855   15.9126 C   0  0  0  0  0  0  0  0  0  0  0  0
   41.5949  -22.7864   15.9133 C   0  0  0  0  0  0  0  0  0  0  0  0
   42.1029  -23.9589   16.7279 C   0  0  0  0  0  0  0  0  0  0  0  0
   43.6190  -23.9622   16.7301 C   0  0  0  0  0  0  0  0  0  0  0  0
   44.1288  -25.1349   17.5450 C   0  0  0  0  0  0  0  0  0  0  0  0
   45.6452  -25.1386   17.5473 C   0  0  0  0  0  0  0  0  0  0  0  0
   46.1547  -26.3115   18.3624 C   0  0  0  0  0  0  0  0  0  0  0  0
   47.6713  -26.3142   18.3668 C   0  0  0  0  0  0  0  0  0  0  0  0
   48.1811  -27.4872   19.1816 C   0  0  0  0  0  0  0  0  0  0  0  0
   49.6977  -27.4888   19.1875 C   0  0  0  0  0  0  0  0  0  0  0  0
   50.2077  -28.6629   20.0008 C   0  0  0  0  0  0  0  0  0  0  0  0
   51.7243  -28.6656   20.0052 C   0  0  0  0  0  0  0  0  0  0  0  0
   52.2343  -29.8408   20.8169 C   0  0  0  0  0  0  0  0  0  0  0  0
   53.7510  -29.8425   20.8229 C   0  0  0  0  0  0  0  0  0  0  0  0
   54.2610  -31.0167   21.6362 C   0  0  0  0  0  0  0  0  0  0  0  0
   55.7776  -31.0194   21.6405 C   0  0  0  0  0  0  0  0  0  0  0  0
   56.2876  -32.1935   22.4538 C   0  0  0  0  0  0  0  0  0  0  0  0
   57.8041  -32.1973   22.4565 C   0  0  0  0  0  0  0  0  0  0  0  0
   58.3139  -33.3714   23.2697 C   0  0  0  0  0  0  0  0  0  0  0  0
   59.8302  -33.3751   23.2722 C   0  0  0  0  0  0  0  0  0  0  0  0
   60.3394  -34.5490   24.0854 C   0  0  0  0  0  0  0  0  0  0  0  0
   61.8551  -34.5521   24.0875 C   0  0  0  0  0  0  0  0  0  0  0  0
   62.3629  -35.7256   24.9004 C   0  0  0  0  0  0  0  0  0  0  0  0
   63.8771  -35.7264   24.9009 C   0  0  0  0  0  0  0  0  0  0  0  0
   64.3825  -36.8989   25.7131 C   0  0  0  0  0  0  0  0  0  0  0  0
   65.8938  -36.8941   25.7097 C   0  0  0  0  0  0  0  0  0  0  0  0
   66.3962  -38.0646   26.5204 C   0  0  0  0  0  0  0  0  0  0  0  0
   67.9038  -38.0494   26.5079 C   0  0  0  0  0  0  0  0  0  0  0  0
   68.4030  -39.2150   27.3170 C   0  0  0  0  0  0  0  0  0  0  0  0
   69.9032  -39.1948   27.3099 C   0  0  0  0  0  0  0  0  0  0  0  0
   70.2936  -40.2829   28.1045 O   0  0  0  0  0  0  0  0  0  0  0  0
   71.7306  -40.2242   28.0949 O   0  0  0  0  0  0  0  0  0  0  0  0
   72.2417  -41.3483   28.8159 O   0  0  0  0  0  0  0  0  0  0  0  0
   71.7248  -42.5596   28.2362 O   0  0  0  0  0  0  0  0  0  0  0  0
   72.1421  -43.6725   29.0276 O   0  0  0  0  0  0  0  0  0  0  0  0
   71.6289  -44.8889   28.4748 O   0  0  0  0  0  0  0  0  0  0  0  0
   72.1442  -46.0077   29.2298 O   0  0  0  0  0  0  0  0  0  0  0  0
   71.6842  -47.2395   28.6510 O   0  0  0  0  0  0  0  0  0  0  0  0
   72.1716  -47.3658   27.2928 O   0  0  0  0  0  0  0  0  0  0  0  0
   22.0136   -0.9234  -15.0526 H   0  0  0  0  0  0  0  0  0  0  0  0
   20.6956   -1.4533  -13.2688 H   0  0  0  0  0  0  0  0  0  0  0  0
   22.1646   -0.5573  -12.8065 H   0  0  0  0  0  0  0  0  0  0  0  0
   23.3456   -2.7370  -12.3607 H   0  0  0  0  0  0  0  0  0  0  0  0
   21.8898   -3.6266  -12.8205 H   0  0  0  0  0  0  0  0  0  0  0  0
   20.6037   -2.4534  -11.0027 H   0  0  0  0  0  0  0  0  0  0  0  0
   22.0534   -1.5676  -10.5450 H   0  0  0  0  0  0  0  0  0  0  0  0
   23.2295   -3.7333  -10.0873 H   0  0  0  0  0  0  0  0  0  0  0  0
   21.7831   -4.6170  -10.5443 H   0  0  0  0  0  0  0  0  0  0  0  0
   20.4919   -3.4665   -8.7432 H   0  0  0  0  0  0  0  0  0  0  0  0
   21.9667   -2.5679   -8.2772 H   0  0  0  0  0  0  0  0  0  0  0  0
   20.1586   -8.1506    1.3437 H   0  0  0  0  0  0  0  0  0  0  0  0
   22.6039   -9.1618    2.2427 H   0  0  0  0  0  0  0  0  0  0  0  0
   20.0469   -8.8608    3.3789 H   0  0  0  0  0  0  0  0  0  0  0  0
   22.5173  -10.0471    4.1898 H   0  0  0  0  0  0  0  0  0  0  0  0
   19.9688   -9.7968    5.4564 H   0  0  0  0  0  0  0  0  0  0  0  0
   22.3670  -11.0102    6.3898 H   0  0  0  0  0  0  0  0  0  0  0  0
   19.7981  -10.7808    7.6196 H   0  0  0  0  0  0  0  0  0  0  0  0
   21.0959  -12.7160    7.8794 H   0  0  0  0  0  0  0  0  0  0  0  0
   33.9470  -17.1694   13.0956 H   0  0  0  0  0  0  0  0  0  0  0  0
   33.9469  -18.1908   11.6254 H   0  0  0  0  0  0  0  0  0  0  0  0
   33.6943  -20.2183   13.0550 H   0  0  0  0  0  0  0  0  0  0  0  0
   33.6920  -19.2178   14.4963 H   0  0  0  0  0  0  0  0  0  0  0  0
   35.9584  -18.3302   13.8917 H   0  0  0  0  0  0  0  0  0  0  0  0
   35.9606  -19.3407   12.4399 H   0  0  0  0  0  0  0  0  0  0  0  0
   35.6745  -21.3798   13.8607 H   0  0  0  0  0  0  0  0  0  0  0  0
   35.6744  -20.3694   15.3108 H   0  0  0  0  0  0  0  0  0  0  0  0
   37.9394  -19.5025   14.7075 H   0  0  0  0  0  0  0  0  0  0  0  0
   37.9395  -20.5108   13.2565 H   0  0  0  0  0  0  0  0  0  0  0  0
   37.6799  -22.5539   14.6760 H   0  0  0  0  0  0  0  0  0  0  0  0
   37.6799  -21.5458   16.1271 H   0  0  0  0  0  0  0  0  0  0  0  0
   39.9449  -20.6723   15.5200 H   0  0  0  0  0  0  0  0  0  0  0  0
   39.9449  -21.6802   14.0693 H   0  0  0  0  0  0  0  0  0  0  0  0
   39.7024  -23.7251   15.4901 H   0  0  0  0  0  0  0  0  0  0  0  0
   39.7025  -22.7173   16.9406 H   0  0  0  0  0  0  0  0  0  0  0  0
   41.9686  -21.8453   16.3347 H   0  0  0  0  0  0  0  0  0  0  0  0
   41.9686  -22.8531   14.8842 H   0  0  0  0  0  0  0  0  0  0  0  0
   41.7269  -24.8992   16.3059 H   0  0  0  0  0  0  0  0  0  0  0  0
   41.7268  -23.8915   17.7563 H   0  0  0  0  0  0  0  0  0  0  0  0
   43.9942  -23.0213   17.1518 H   0  0  0  0  0  0  0  0  0  0  0  0
   43.9941  -24.0291   15.7015 H   0  0  0  0  0  0  0  0  0  0  0  0
   43.7528  -26.0755   17.1234 H   0  0  0  0  0  0  0  0  0  0  0  0
   43.7528  -25.0680   18.5735 H   0  0  0  0  0  0  0  0  0  0  0  0
   46.0207  -24.1982   17.9693 H   0  0  0  0  0  0  0  0  0  0  0  0
   46.0214  -25.2061   16.5189 H   0  0  0  0  0  0  0  0  0  0  0  0
   45.7801  -27.2518   17.9395 H   0  0  0  0  0  0  0  0  0  0  0  0
   45.7777  -26.2449   19.3905 H   0  0  0  0  0  0  0  0  0  0  0  0
   48.0457  -25.3738   18.7895 H   0  0  0  0  0  0  0  0  0  0  0  0
   48.0481  -26.3808   17.3386 H   0  0  0  0  0  0  0  0  0  0  0  0
   47.8075  -28.4275   18.7579 H   0  0  0  0  0  0  0  0  0  0  0  0
   47.8030  -27.4213   20.2093 H   0  0  0  0  0  0  0  0  0  0  0  0
   50.0712  -26.5489   19.6124 H   0  0  0  0  0  0  0  0  0  0  0  0
   50.0757  -27.5533   18.1596 H   0  0  0  0  0  0  0  0  0  0  0  0
   49.8331  -29.6027   19.5766 H   0  0  0  0  0  0  0  0  0  0  0  0
   49.8307  -28.5977   21.0289 H   0  0  0  0  0  0  0  0  0  0  0  0
   52.0988  -27.7264   20.4306 H   0  0  0  0  0  0  0  0  0  0  0  0
   52.1014  -28.7294   18.9770 H   0  0  0  0  0  0  0  0  0  0  0  0
   51.8609  -30.7801   20.3907 H   0  0  0  0  0  0  0  0  0  0  0  0
   51.8562  -29.7779   21.8448 H   0  0  0  0  0  0  0  0  0  0  0  0
   54.1245  -28.9028   21.2479 H   0  0  0  0  0  0  0  0  0  0  0  0
   54.1290  -29.9069   19.7951 H   0  0  0  0  0  0  0  0  0  0  0  0
   53.8864  -31.9565   21.2120 H   0  0  0  0  0  0  0  0  0  0  0  0
   53.8840  -30.9515   22.6643 H   0  0  0  0  0  0  0  0  0  0  0  0
   56.1523  -30.0797   22.0647 H   0  0  0  0  0  0  0  0  0  0  0  0
   56.1545  -31.0846   20.6124 H   0  0  0  0  0  0  0  0  0  0  0  0
   55.9119  -33.1333   22.0305 H   0  0  0  0  0  0  0  0  0  0  0  0
   55.9118  -32.1276   23.4823 H   0  0  0  0  0  0  0  0  0  0  0  0
   58.1800  -31.2577   22.8798 H   0  0  0  0  0  0  0  0  0  0  0  0
   58.1800  -32.2634   21.4280 H   0  0  0  0  0  0  0  0  0  0  0  0
   57.9383  -34.3112   22.8465 H   0  0  0  0  0  0  0  0  0  0  0  0
   57.9383  -33.3056   24.2983 H   0  0  0  0  0  0  0  0  0  0  0  0
   60.2064  -32.4356   23.6956 H   0  0  0  0  0  0  0  0  0  0  0  0
   60.2064  -33.4412   22.2438 H   0  0  0  0  0  0  0  0  0  0  0  0
   59.9641  -35.4890   23.6622 H   0  0  0  0  0  0  0  0  0  0  0  0
   59.9641  -34.4833   25.1141 H   0  0  0  0  0  0  0  0  0  0  0  0
   62.2317  -33.6129   24.5111 H   0  0  0  0  0  0  0  0  0  0  0  0
   62.2317  -34.6185   23.0593 H   0  0  0  0  0  0  0  0  0  0  0  0
   61.9887  -36.6662   24.4775 H   0  0  0  0  0  0  0  0  0  0  0  0
   61.9887  -35.6604   25.9295 H   0  0  0  0  0  0  0  0  0  0  0  0
   64.2546  -34.7877   25.3250 H   0  0  0  0  0  0  0  0  0  0  0  0
   64.2546  -35.7934   23.8730 H   0  0  0  0  0  0  0  0  0  0  0  0
   64.0105  -37.8406   25.2909 H   0  0  0  0  0  0  0  0  0  0  0  0
   64.0106  -36.8347   26.7432 H   0  0  0  0  0  0  0  0  0  0  0  0
   66.2721  -35.9559   26.1344 H   0  0  0  0  0  0  0  0  0  0  0  0
   66.2719  -36.9619   24.6820 H   0  0  0  0  0  0  0  0  0  0  0  0
   66.0261  -39.0080   26.1001 H   0  0  0  0  0  0  0  0  0  0  0  0
   66.0284  -38.0011   27.5521 H   0  0  0  0  0  0  0  0  0  0  0  0
   68.2814  -37.1110   26.9313 H   0  0  0  0  0  0  0  0  0  0  0  0
   68.2797  -38.1187   25.4794 H   0  0  0  0  0  0  0  0  0  0  0  0
   68.0357  -40.1628   26.9107 H   0  0  0  0  0  0  0  0  0  0  0  0
   68.0334  -39.1675   28.3506 H   0  0  0  0  0  0  0  0  0  0  0  0
   70.2897  -38.2714   27.7478 H   0  0  0  0  0  0  0  0  0  0  0  0
   70.2943  -39.3092   26.2905 H   0  0  0  0  0  0  0  0  0  0  0  0
   71.7259  -48.2071   27.1148 H   0  0  0  0  0  0  0  0  0  0  0  0
  1  2  1  0  0  0  0
  1 82  1  0  0  0  0
  2  3  1  0  0  0  0
  2 83  1  0  0  0  0
  2 84  1  0  0  0  0
  3  4  1  0  0  0  0
  3 85  1  0  0  0  0
  3 86  1  0  0  0  0
  4  5  1  0  0  0  0
  4 87  1  0  0  0  0
  4 88  1  0  0  0  0
  5  6  1  0  0  0  0
  5 89  1  0  0  0  0
  5 90  1  0  0  0  0
  6  7  1  0  0  0  0
  6 91  1  0  0  0  0
  6 92  1  0  0  0  0
  7  8  1  0  0  0  0
  8  9  1  0  0  0  0
  9 10  1  0  0  0  0
 10 11  1  0  0  0  0
 11 12  1  0  0  0  0
 12 13  1  0  0  0  0
 13 14  1  0  0  0  0
 14 15  1  0  0  0  0
 15 16  1  0  0  0  0
 16 17  1  0  0  0  0
 16 93  1  0  0  0  0
 17 18  1  0  0  0  0
 17 94  1  0  0  0  0
 18 19  1  0  0  0  0
 18 95  1  0  0  0  0
 19 20  1  0  0  0  0
 19 96  1  0  0  0  0
 20 21  1  0  0  0  0
 20 97  1  0  0  0  0
 21 22  1  0  0  0  0
 21 98  1  0  0  0  0
 22 23  1  0  0  0  0
 22 99  1  0  0  0  0
 23 24  1  0  0  0  0
 23100  1  0  0  0  0
 24 25  1  0  0  0  0
 25 26  1  0  0  0  0
 26 27  1  0  0  0  0
 27 28  1  0  0  0  0
 28 29  1  0  0  0  0
 29 30  1  0  0  0  0
 30 31  1  0  0  0  0
 31 32  1  0  0  0  0
 32 33  1  0  0  0  0
 33 34  1  0  0  0  0
 34 35  1  0  0  0  0
 35 36  1  0  0  0  0
 36 37  1  0  0  0  0
 36101  1  0  0  0  0
 36102  1  0  0  0  0
 37 38  1  0  0  0  0
 37103  1  0  0  0  0
 37104  1  0  0  0  0
 38 39  1  0  0  0  0
 38105  1  0  0  0  0
 38106  1  0  0  0  0
 39 40  1  0  0  0  0
 39107  1  0  0  0  0
 39108  1  0  0  0  0
 40 41  1  0  0  0  0
 40109  1  0  0  0  0
 40110  1  0  0  0  0
 41 42  1  0  0  0  0
 41111  1  0  0  0  0
 41112  1  0  0  0  0
 42 43  1  0  0  0  0
 42113  1  0  0  0  0
 42114  1  0  0  0  0
 43 44  1  0  0  0  0
 43115  1  0  0  0  0
 43116  1  0  0  0  0
 44 45  1  0  0  0  0
 44117  1  0  0  0  0
 44118  1  0  0  0  0
 45 46  1  0  0  0  0
 45119  1  0  0  0  0
 45120  1  0  0  0  0
 46 47  1  0  0  0  0
 46121  1  0  0  0  0
 46122  1  0  0  0  0
 47 48  1  0  0  0  0
 47123  1  0  0  0  0
 47124  1  0  0  0  0
 48 49  1  0  0  0  0
 48125  1  0  0  0  0
 48126  1  0  0  0  0
 49 50  1  0  0  0  0
 49127  1  0  0  0  0
 49128  1  0  0  0  0
 50 51  1  0  0  0  0
 50129  1  0  0  0  0
 50130  1  0  0  0  0
 51 52  1  0  0  0  0
 51131  1  0  0  0  0
 51132  1  0  0  0  0
 52 53  1  0  0  0  0
 52133  1  0  0  0  0
 52134  1  0  0  0  0
 53 54  1  0  0  0  0
 53135  1  0  0  0  0
 53136  1  0  0  0  0
 54 55  1  0  0  0  0
 54137  1  0  0  0  0
 54138  1  0  0  0  0
 55 56  1  0  0  0  0
 55139  1  0  0  0  0
 55140  1  0  0  0  0
 56 57  1  0  0  0  0
 56141  1  0  0  0  0
 56142  1  0  0  0  0
 57 58  1  0  0  0  0
 57143  1  0  0  0  0
 57144  1  0  0  0  0
 58 59  1  0  0  0  0
 58145  1  0  0  0  0
 58146  1  0  0  0  0
 59 60  1  0  0  0  0
 59147  1  0  0  0  0
 59148  1  0  0  0  0
 60 61  1  0  0  0  0
 60149  1  0  0  0  0
 60150  1  0  0  0  0
 61 62  1  0  0  0  0
 61151  1  0  0  0  0
 61152  1  0  0  0  0
 62 63  1  0  0  0  0
 62153  1  0  0  0  0
 62154  1  0  0  0  0
 63 64  1  0  0  0  0
 63155  1  0  0  0  0
 63156  1  0  0  0  0
 64 65  1  0  0  0  0
 64157  1  0  0  0  0
 64158  1  0  0  0  0
 65 66  1  0  0  0  0
 65159  1  0  0  0  0
 65160  1  0  0  0  0
 66 67  1  0  0  0  0
 66161  1  0  0  0  0
 66162  1  0  0  0  0
 67 68  1  0  0  0  0
 67163  1  0  0  0  0
 67164  1  0  0  0  0
 68 69  1  0  0  0  0
 68165  1  0  0  0  0
 68166  1  0  0  0  0
 69 70  1  0  0  0  0
 69167  1  0  0  0  0
 69168  1  0  0  0  0
 70 71  1  0  0  0  0
 70169  1  0  0  0  0
 70170  1  0  0  0  0
 71 72  1  0  0  0  0
 71171  1  0  0  0  0
 71172  1  0  0  0  0
 72 73  1  0  0  0  0
 72173  1  0  0  0  0
 72174  1  0  0  0  0
 73 74  1  0  0  0  0
 74 75  1  0  0  0  0
 75 76  1  0  0  0  0
 76 77  1  0  0  0  0
 77 78  1  0  0  0  0
 78 79  1  0  0  0  0
 79 80  1  0  0  0  0
 80 81  1  0  0  0  0
 81175  1  0  0  0  0
M  END
$$$$
