
 OpenBabel04232216533D

 30 30  0  0  1  0  0  0  0  0999 V2000
    0.8782    0.0502    0.0001 C   0  0  0  0  0  0  0  0  0  0  0  0
    2.4022    0.0439    0.0020 C   0  0  0  0  0  0  0  0  0  0  0  0
    2.9527    1.1122   -0.9428 C   0  0  0  0  0  0  0  0  0  0  0  0
    4.4852    1.1191   -0.9487 C   0  0  0  0  0  0  0  0  0  0  0  0
    5.0038    2.1953   -1.9049 C   0  0  0  0  0  0  0  0  0  0  0  0
    6.4685    2.2123   -1.9195 N   0  0  0  0  0  0  0  0  0  0  0  0
    6.9456    3.2434   -2.8493 C   0  0  0  0  0  0  0  0  0  0  0  0
    8.4815    3.2791   -2.9108 C   0  0  0  0  0  0  0  0  0  0  0  0
    8.9674    4.3547   -3.8543 C   0  0  3  0  0  0  0  0  0  0  0  0
   10.4363    4.6132   -4.0599 C   0  0  0  0  0  0  0  0  0  0  0  0
    9.6192    3.8532   -5.3748 S   0  0  0  0  0  0  0  0  0  0  0  0
    0.4934   -0.7166    0.6794 H   0  0  0  0  0  0  0  0  0  0  0  0
    0.4906   -0.1565   -1.0007 H   0  0  0  0  0  0  0  0  0  0  0  0
    0.4920    1.0192    0.3271 H   0  0  0  0  0  0  0  0  0  0  0  0
    2.7602   -0.9442   -0.3010 H   0  0  0  0  0  0  0  0  0  0  0  0
    2.7634    0.2271    1.0195 H   0  0  0  0  0  0  0  0  0  0  0  0
    2.5830    2.0982   -0.6392 H   0  0  0  0  0  0  0  0  0  0  0  0
    2.5831    0.9277   -1.9591 H   0  0  0  0  0  0  0  0  0  0  0  0
    4.8555    0.1345   -1.2577 H   0  0  0  0  0  0  0  0  0  0  0  0
    4.8552    1.3076    0.0643 H   0  0  0  0  0  0  0  0  0  0  0  0
    4.6253    3.1724   -1.5830 H   0  0  0  0  0  0  0  0  0  0  0  0
    4.6194    1.9979   -2.9127 H   0  0  0  0  0  0  0  0  0  0  0  0
    6.8144    1.3001   -2.2153 H   0  0  0  0  0  0  0  0  0  0  0  0
    6.5732    4.2225   -2.5245 H   0  0  0  0  0  0  0  0  0  0  0  0
    6.5492    3.0568   -3.8542 H   0  0  0  0  0  0  0  0  0  0  0  0
    8.8567    2.2933   -3.2037 H   0  0  0  0  0  0  0  0  0  0  0  0
    8.8791    3.4815   -1.9060 H   0  0  0  0  0  0  0  0  0  0  0  0
    8.3116    5.2147   -3.8893 H   0  0  0  0  0  0  0  0  0  0  0  0
   11.1751    4.0016   -3.5557 H   0  0  0  0  0  0  0  0  0  0  0  0
   10.7597    5.6310   -4.2445 H   0  0  0  0  0  0  0  0  0  0  0  0
  1  2  1  0  0  0  0
  1 12  1  0  0  0  0
  1 13  1  0  0  0  0
  1 14  1  0  0  0  0
  2  3  1  0  0  0  0
  2 15  1  0  0  0  0
  2 16  1  0  0  0  0
  3  4  1  0  0  0  0
  3 17  1  0  0  0  0
  3 18  1  0  0  0  0
  4  5  1  0  0  0  0
  4 19  1  0  0  0  0
  4 20  1  0  0  0  0
  5  6  1  0  0  0  0
  5 21  1  0  0  0  0
  5 22  1  0  0  0  0
  6  7  1  0  0  0  0
  6 23  1  0  0  0  0
  7  8  1  0  0  0  0
  7 24  1  0  0  0  0
  7 25  1  0  0  0  0
  8  9  1  0  0  0  0
  8 26  1  0  0  0  0
  8 27  1  0  0  0  0
  9 10  1  0  0  0  0
  9 11  1  0  0  0  0
  9 28  1  0  0  0  0
 10 11  1  0  0  0  0
 10 29  1  0  0  0  0
 10 30  1  0  0  0  0
M  END
$$$$
