
 OpenBabel04232216463D

 62 63  0  0  1  0  0  0  0  0999 V2000
    6.0087   -3.6548    0.9583 C   0  0  0  0  0  0  0  0  0  0  0  0
    7.1020   -2.9832    1.8824 C   0  0  0  0  0  0  0  0  0  0  0  0
    6.4557   -1.8481    2.3026 C   0  0  0  0  0  0  0  0  0  0  0  0
    6.1131   -0.4859    1.5739 C   0  0  0  0  0  0  0  0  0  0  0  0
    5.7096   -0.2890    0.1253 C   0  0  0  0  0  0  0  0  0  0  0  0
    6.2571    0.6465    2.1963 N   0  0  0  0  0  0  0  0  0  0  0  0
    7.5967    0.5817    2.7310 C   0  0  0  0  0  0  0  0  0  0  0  0
    7.5967   -0.0858    4.0714 C   0  0  0  0  0  0  0  0  0  0  0  0
    9.0060   -0.5022    4.1989 C   0  0  0  0  0  0  0  0  0  0  0  0
    9.1492   -1.2779    5.4765 C   0  0  0  0  0  0  0  0  0  0  0  0
   10.6159   -1.2084    5.6377 C   0  0  0  0  0  0  0  0  0  0  0  0
   11.1419   -2.2191    6.5468 C   0  0  0  0  0  0  0  0  0  0  0  0
   10.7518   -2.4574    7.6719 O   0  0  0  0  0  0  0  0  0  0  0  0
   12.1454   -3.0496    5.8877 C   0  0  3  0  0  3  0  0  0  0  0  0
   11.3414   -4.2283    5.2417 C   0  0  0  0  0  0  0  0  0  0  0  0
   11.1558   -4.0222    3.8054 N   0  0  0  0  0  0  0  0  0  0  0  0
   12.6038   -3.9973    3.3462 C   0  0  0  0  0  0  0  0  0  0  0  0
   12.8001   -3.6597    2.1949 O   0  0  0  0  0  0  0  0  0  0  0  0
   14.0387   -4.5759    4.3425 C   0  0  0  0  0  0  0  0  0  0  0  0
   15.0729   -4.0198    5.6768 C   0  0  0  0  0  0  0  0  0  0  0  0
   16.2983   -2.9661    5.6162 C   0  0  0  0  0  0  0  0  0  0  0  0
   16.2526   -1.6222    6.4214 C   0  0  0  0  0  0  0  0  0  0  0  0
   15.1925   -0.6417    5.9414 C   0  0  0  0  0  0  0  0  0  0  0  0
   13.8055   -1.1058    6.3723 C   0  0  0  0  0  0  0  0  0  0  0  0
   13.1827   -2.0349    5.3128 C   0  0  0  0  0  0  0  0  0  0  0  0
    9.6228   -3.7655    3.2567 C   0  0  0  0  0  0  0  0  0  0  0  0
    8.7994   -3.3583    2.1377 C   0  0  0  0  0  0  0  0  0  0  0  0
    5.2675   -4.2432    1.5287 H   0  0  0  0  0  0  0  0  0  0  0  0
    6.3394   -4.1665    0.0624 H   0  0  0  0  0  0  0  0  0  0  0  0
    5.3199   -2.8767    0.5355 H   0  0  0  0  0  0  0  0  0  0  0  0
    5.3897   -2.0290    2.5968 H   0  0  0  0  0  0  0  0  0  0  0  0
    4.6389   -0.0948    0.0259 H   0  0  0  0  0  0  0  0  0  0  0  0
    6.0606   -1.0844   -0.5152 H   0  0  0  0  0  0  0  0  0  0  0  0
    6.2162    0.6350   -0.2035 H   0  0  0  0  0  0  0  0  0  0  0  0
    8.0567    1.5697    2.7757 H   0  0  0  0  0  0  0  0  0  0  0  0
    8.2352    0.0461    1.9944 H   0  0  0  0  0  0  0  0  0  0  0  0
    6.9892   -0.9860    4.2065 H   0  0  0  0  0  0  0  0  0  0  0  0
    7.2842    0.5788    4.8664 H   0  0  0  0  0  0  0  0  0  0  0  0
    9.6497    0.3867    4.1728 H   0  0  0  0  0  0  0  0  0  0  0  0
    9.3429   -1.1108    3.3426 H   0  0  0  0  0  0  0  0  0  0  0  0
    8.7621   -2.2951    5.3782 H   0  0  0  0  0  0  0  0  0  0  0  0
    8.6516   -0.8004    6.3139 H   0  0  0  0  0  0  0  0  0  0  0  0
   10.9820   -0.2285    5.9068 H   0  0  0  0  0  0  0  0  0  0  0  0
   10.9868   -1.4341    4.6195 H   0  0  0  0  0  0  0  0  0  0  0  0
   11.8682   -5.1816    5.3783 H   0  0  0  0  0  0  0  0  0  0  0  0
   10.3676   -4.4222    5.7034 H   0  0  0  0  0  0  0  0  0  0  0  0
   14.7852   -4.8669    3.5920 H   0  0  0  0  0  0  0  0  0  0  0  0
   13.7037   -5.5323    4.7740 H   0  0  0  0  0  0  0  0  0  0  0  0
   15.6104   -4.9421    5.9573 H   0  0  0  0  0  0  0  0  0  0  0  0
   14.4928   -3.8075    6.5826 H   0  0  0  0  0  0  0  0  0  0  0  0
   16.6002   -2.7533    4.5884 H   0  0  0  0  0  0  0  0  0  0  0  0
   17.1726   -3.4625    6.0801 H   0  0  0  0  0  0  0  0  0  0  0  0
   17.2280   -1.1099    6.3309 H   0  0  0  0  0  0  0  0  0  0  0  0
   16.1469   -1.7926    7.5039 H   0  0  0  0  0  0  0  0  0  0  0  0
   15.2674   -0.5224    4.8541 H   0  0  0  0  0  0  0  0  0  0  0  0
   15.3871    0.3511    6.3699 H   0  0  0  0  0  0  0  0  0  0  0  0
   13.1717   -0.2203    6.4860 H   0  0  0  0  0  0  0  0  0  0  0  0
   13.8576   -1.5799    7.3620 H   0  0  0  0  0  0  0  0  0  0  0  0
   13.9740   -2.4620    4.7304 H   0  0  0  0  0  0  0  0  0  0  0  0
   12.7811   -1.3952    4.5253 H   0  0  0  0  0  0  0  0  0  0  0  0
    8.9693   -4.0013    4.1052 H   0  0  0  0  0  0  0  0  0  0  0  0
    9.2657   -3.1056    1.1792 H   0  0  0  0  0  0  0  0  0  0  0  0
  1  2  1  0  0  0  0
  1 28  1  0  0  0  0
  1 29  1  0  0  0  0
  1 30  1  0  0  0  0
  2  3  2  3  0  0  0
  2 27  1  0  0  0  0
  3  4  1  0  0  0  0
  3 31  1  0  0  0  0
  4  5  1  0  0  0  0
  4  6  2  3  0  0  0
  5 32  1  0  0  0  0
  5 33  1  0  0  0  0
  5 34  1  0  0  0  0
  6  7  1  0  0  0  0
  7  8  1  0  0  0  0
  7 35  1  0  0  0  0
  7 36  1  0  0  0  0
  8  9  1  0  0  0  0
  8 37  1  0  0  0  0
  8 38  1  0  0  0  0
  9 10  1  0  0  0  0
  9 39  1  0  0  0  0
  9 40  1  0  0  0  0
 10 11  1  0  0  0  0
 10 41  1  0  0  0  0
 10 42  1  0  0  0  0
 11 12  1  0  0  0  0
 11 43  1  0  0  0  0
 11 44  1  0  0  0  0
 12 13  2  0  0  0  0
 12 14  1  0  0  0  0
 14 15  1  0  0  0  0
 14 25  1  0  0  0  0
 15 16  1  0  0  0  0
 15 45  1  0  0  0  0
 15 46  1  0  0  0  0
 16 17  1  0  0  0  0
 16 26  1  0  0  0  0
 17 18  2  0  0  0  0
 17 19  1  0  0  0  0
 19 20  1  0  0  0  0
 19 47  1  0  0  0  0
 19 48  1  0  0  0  0
 20 21  1  0  0  0  0
 20 49  1  0  0  0  0
 20 50  1  0  0  0  0
 21 22  1  0  0  0  0
 21 51  1  0  0  0  0
 21 52  1  0  0  0  0
 22 23  1  0  0  0  0
 22 53  1  0  0  0  0
 22 54  1  0  0  0  0
 23 24  1  0  0  0  0
 23 55  1  0  0  0  0
 23 56  1  0  0  0  0
 24 25  1  0  0  0  0
 24 57  1  0  0  0  0
 24 58  1  0  0  0  0
 25 59  1  0  0  0  0
 25 60  1  0  0  0  0
 26 27  2  3  0  0  0
 26 61  1  0  0  0  0
 27 62  1  0  0  0  0
M  END
$$$$
