
 OpenBabel04232217013D

 47 49  0  0  1  0  0  0  0  0999 V2000
    1.5358   -0.1273   -0.3571 O   0  0  0  0  0  0  0  0  0  0  0  0
    2.9408   -0.1956   -0.2653 N   0  0  0  0  0  0  0  0  0  0  0  0
    3.3689   -0.3454    1.1579 C   0  0  3  0  0  0  0  0  0  0  0  0
    2.5860   -1.4607    1.8788 C   0  0  0  0  0  0  0  0  0  0  0  0
    2.8954   -2.8649    1.3507 C   0  0  0  0  0  0  0  0  0  0  0  0
    2.1692   -3.9323    2.1701 C   0  0  0  0  0  0  0  0  0  0  0  0
    2.5215   -5.3083    1.6835 C   0  0  0  0  0  0  0  0  0  0  0  0
    2.1245   -5.6089    0.2754 C   0  0  0  0  0  0  0  0  0  0  0  0
    2.8480   -5.9028   -0.7574 N   0  0  0  0  0  0  0  0  0  0  0  0
    4.2084   -5.9684   -0.6175 C   0  0  0  0  0  0  0  0  0  0  0  0
    4.8901   -6.8558    0.1235 C   0  0  0  0  0  0  0  0  0  0  0  0
    4.2871   -7.8459    0.9909 C   0  0  0  0  0  0  0  0  0  0  0  0
    3.4842   -7.5754    2.0300 C   0  0  0  0  0  0  0  0  0  0  0  0
    3.1068   -6.2439    2.4498 C   0  0  0  0  0  0  0  0  0  0  0  0
    4.8185   -0.6225    1.2653 C   0  0  0  0  0  0  0  0  0  0  0  0
    5.6993   -0.0946    2.1271 C   0  0  0  0  0  0  0  0  0  0  0  0
    5.3810    0.4603    3.3327 N   0  0  0  0  0  0  0  0  0  0  0  0
    6.1874    0.4370    4.3001 N   0  0  0  0  0  0  0  0  0  0  0  0
    7.5027   -0.0765    4.1546 N   0  0  0  0  0  0  0  0  0  0  0  0
    7.9469   -0.2380    2.9498 C   0  0  0  0  0  0  0  0  0  0  0  0
    7.0986   -0.0329    1.7769 C   0  0  0  0  0  0  0  0  0  0  0  0
    7.5734    0.3226    0.5619 C   0  0  0  0  0  0  0  0  0  0  0  0
    6.6355    0.7828   -0.4611 C   0  0  0  0  0  0  0  0  0  0  0  0
    6.1475   -0.0302   -1.4098 C   0  0  0  0  0  0  0  0  0  0  0  0
    4.8407    0.1536   -2.0042 C   0  0  0  0  0  0  0  0  0  0  0  0
    3.6060    0.0621   -1.4688 C   0  0  0  0  0  0  0  0  0  0  0  0
    1.3280    0.7666   -0.0264 H   0  0  0  0  0  0  0  0  0  0  0  0
    3.1359    0.6068    1.6536 H   0  0  0  0  0  0  0  0  0  0  0  0
    1.5069   -1.2771    1.8098 H   0  0  0  0  0  0  0  0  0  0  0  0
    2.8292   -1.4220    2.9492 H   0  0  0  0  0  0  0  0  0  0  0  0
    3.9728   -3.0664    1.3984 H   0  0  0  0  0  0  0  0  0  0  0  0
    2.6049   -2.9253    0.2949 H   0  0  0  0  0  0  0  0  0  0  0  0
    1.0856   -3.7820    2.1134 H   0  0  0  0  0  0  0  0  0  0  0  0
    2.4493   -3.8206    3.2259 H   0  0  0  0  0  0  0  0  0  0  0  0
    1.0374   -5.5130    0.1015 H   0  0  0  0  0  0  0  0  0  0  0  0
    4.7635   -5.2699   -1.2387 H   0  0  0  0  0  0  0  0  0  0  0  0
    5.9713   -6.8552    0.0826 H   0  0  0  0  0  0  0  0  0  0  0  0
    4.5651   -8.8782    0.7859 H   0  0  0  0  0  0  0  0  0  0  0  0
    3.1278   -8.3900    2.6537 H   0  0  0  0  0  0  0  0  0  0  0  0
    3.3315   -6.0193    3.4905 H   0  0  0  0  0  0  0  0  0  0  0  0
    5.1913   -1.2454    0.4598 H   0  0  0  0  0  0  0  0  0  0  0  0
    8.9898   -0.5448    2.7768 H   0  0  0  0  0  0  0  0  0  0  0  0
    8.6334    0.3946    0.3471 H   0  0  0  0  0  0  0  0  0  0  0  0
    6.0582    1.6693   -0.1874 H   0  0  0  0  0  0  0  0  0  0  0  0
    6.6638   -0.9471   -1.6880 H   0  0  0  0  0  0  0  0  0  0  0  0
    4.8903    0.3088   -3.0827 H   0  0  0  0  0  0  0  0  0  0  0  0
    2.8241    0.1879   -2.2242 H   0  0  0  0  0  0  0  0  0  0  0  0
  1  2  1  0  0  0  0
  1 27  1  0  0  0  0
  2  3  1  0  0  0  0
  2 26  1  0  0  0  0
  3  4  1  0  0  0  0
  3 15  1  0  0  0  0
  3 28  1  0  0  0  0
  4  5  1  0  0  0  0
  4 29  1  0  0  0  0
  4 30  1  0  0  0  0
  5  6  1  0  0  0  0
  5 31  1  0  0  0  0
  5 32  1  0  0  0  0
  6  7  1  0  0  0  0
  6 33  1  0  0  0  0
  6 34  1  0  0  0  0
  7  8  1  0  0  0  0
  7 14  2  0  0  0  0
  8  9  2  0  0  0  0
  8 35  1  0  0  0  0
  9 10  1  0  0  0  0
 10 11  2  0  0  0  0
 10 36  1  0  0  0  0
 11 12  1  0  0  0  0
 11 37  1  0  0  0  0
 12 13  2  0  0  0  0
 12 38  1  0  0  0  0
 13 14  1  0  0  0  0
 13 39  1  0  0  0  0
 14 40  1  0  0  0  0
 15 16  2  3  0  0  0
 15 41  1  0  0  0  0
 16 17  1  0  0  0  0
 16 21  1  0  0  0  0
 17 18  2  0  0  0  0
 18 19  1  0  0  0  0
 19 20  2  0  0  0  0
 20 21  1  0  0  0  0
 20 42  1  0  0  0  0
 21 22  2  3  0  0  0
 22 23  1  0  0  0  0
 22 43  1  0  0  0  0
 23 24  2  3  0  0  0
 23 44  1  0  0  0  0
 24 25  1  0  0  0  0
 24 45  1  0  0  0  0
 25 26  2  3  0  0  0
 25 46  1  0  0  0  0
 26 47  1  0  0  0  0
M  END
$$$$
