
 OpenBabel04232216483D

113113  0  0  0  0  0  0  0  0999 V2000
   14.9786   -8.5700   -2.5194 C   0  0  0  0  0  0  0  0  0  0  0  0
   17.3431   -9.5227   -2.9769 C   0  0  0  0  0  0  0  0  0  0  0  0
   15.0867   -8.1065   -2.7759 C   0  0  0  0  0  0  0  0  0  0  0  0
   12.5906   -6.6131   -2.3213 C   0  0  0  0  0  0  0  0  0  0  0  0
   10.4049   -5.4546   -1.8093 C   0  0  0  0  0  0  0  0  0  0  0  0
    7.6918   -4.6298   -1.2068 C   0  0  0  0  0  0  0  0  0  0  0  0
    5.1892   -4.0285   -0.6413 C   0  0  0  0  0  0  0  0  0  0  0  0
    8.4895   -3.8536   -1.2266 C   0  0  0  0  0  0  0  0  0  0  0  0
    8.5213   -2.9884   -0.1002 C   0  0  0  0  0  0  0  0  0  0  0  0
    9.6813   -3.8947   -0.1146 C   0  0  0  0  0  0  0  0  0  0  0  0
    9.3150   -5.8734   -0.3732 C   0  0  0  0  0  0  0  0  0  0  0  0
   11.2289   -5.6215   -0.1128 C   0  0  0  0  0  0  0  0  0  0  0  0
   12.0035   -6.8869   -0.4958 C   0  0  0  0  0  0  0  0  0  0  0  0
   13.9456   -6.7849   -0.4996 C   0  0  0  0  0  0  0  0  0  0  0  0
   14.2281   -8.8402   -0.6342 C   0  0  0  0  0  0  0  0  0  0  0  0
   16.0016   -8.2371   -0.8310 C   0  0  0  0  0  0  0  0  0  0  0  0
   15.7212   -9.9250   -1.1191 N   0  0  0  0  0  0  0  0  0  0  0  0
   17.2559  -10.0640   -1.1576 C   0  0  0  0  0  0  0  0  0  0  0  0
   17.7418  -11.3524   -1.5238 N   0  0  0  0  0  0  0  0  0  0  0  0
   19.4437  -11.3378   -1.1358 C   0  0  0  0  0  0  0  0  0  0  0  0
   19.4494  -12.7068   -1.8741 N   0  0  0  0  0  0  0  0  0  0  0  0
   20.8532  -12.2775   -1.8168 C   0  0  0  0  0  0  0  0  0  0  0  0
   21.0846  -13.5824   -2.0133 N   0  0  0  0  0  0  0  0  0  0  0  0
   22.4519  -13.1409   -1.5844 C   0  0  0  0  0  0  0  0  0  0  0  0
   22.6171  -14.8586   -2.2093 N   0  0  0  0  0  0  0  0  0  0  0  0
   24.0186  -15.0283   -2.2030 C   0  0  0  0  0  0  0  0  0  0  0  0
   24.7578  -16.5103   -2.5529 N   0  0  0  0  0  0  0  0  0  0  0  0
   26.1916  -16.5279   -2.6003 C   0  0  0  0  0  0  0  0  0  0  0  0
   26.8737  -17.8724   -2.7940 C   0  0  0  0  0  0  0  0  0  0  0  0
   28.2628  -17.9582   -2.8785 C   0  0  0  0  0  0  0  0  0  0  0  0
   29.0221  -19.1659   -3.2162 C   0  0  0  0  0  0  0  0  0  0  0  0
   29.9697  -19.5202   -2.2098 C   0  0  0  0  0  3  0  0  0  0  0  0
   30.8555  -20.6117   -3.1160 C   0  0  0  0  0  0  0  0  0  0  0  0
   32.2074  -21.0110   -2.7034 C   0  0  0  0  0  3  0  0  0  0  0  0
   32.9520  -22.1011   -3.2923 C   0  0  0  0  0  0  0  0  0  0  0  0
   34.4193  -21.8397   -2.2775 C   0  0  0  0  0  0  0  0  0  0  0  0
   34.6409  -23.0460   -3.0344 C   0  0  0  0  0  0  0  0  0  0  0  0
   35.1475  -21.5319   -3.5251 C   0  0  0  0  0  0  0  0  0  0  0  0
   33.6051  -20.2313   -3.9813 C   0  0  0  0  0  0  0  0  0  0  0  0
   31.5293  -18.6412   -3.9255 C   0  0  0  0  0  0  0  0  0  0  0  0
   29.6265  -17.0921   -3.7933 C   0  0  0  0  0  0  0  0  0  0  0  0
   27.2859  -15.3823   -3.7798 C   0  0  0  0  0  0  0  0  0  0  0  0
   25.0706  -13.9768   -3.5872 C   0  0  0  0  0  0  0  0  0  0  0  0
   22.3449  -12.4393   -3.4183 C   0  0  0  0  0  0  0  0  0  0  0  0
   19.9743  -11.0810   -3.2922 C   0  0  0  0  0  0  0  0  0  0  0  0
   13.4423   -7.9437   -1.8086 H   0  0  0  0  0  0  0  0  0  0  0  0
   13.4932   -7.7926   -1.8921 H   0  0  0  0  0  0  0  0  0  0  0  0
   13.4056   -8.1199   -1.7343 H   0  0  0  0  0  0  0  0  0  0  0  0
   13.9079   -6.7899   -2.6163 H   0  0  0  0  0  0  0  0  0  0  0  0
   11.3021   -5.3803   -1.9813 H   0  0  0  0  0  0  0  0  0  0  0  0
    6.2674   -3.4561   -1.2522 H   0  0  0  0  0  0  0  0  0  0  0  0
    6.4372   -3.7008   -0.1947 H   0  0  0  0  0  0  0  0  0  0  0  0
    3.4684   -3.9675   -1.1154 H   0  0  0  0  0  0  0  0  0  0  0  0
    3.7122   -2.9528   -0.2618 H   0  0  0  0  0  0  0  0  0  0  0  0
    3.6657   -4.1415    0.3405 H   0  0  0  0  0  0  0  0  0  0  0  0
    7.5566   -2.7366   -0.1086 H   0  0  0  0  0  0  0  0  0  0  0  0
    7.5395   -2.2332   -1.2770 H   0  0  0  0  0  0  0  0  0  0  0  0
    8.0520   -3.1382   -1.5651 H   0  0  0  0  0  0  0  0  0  0  0  0
    7.6455   -3.8246    0.6257 H   0  0  0  0  0  0  0  0  0  0  0  0
    9.5169   -3.3818    0.8278 H   0  0  0  0  0  0  0  0  0  0  0  0
    9.8959   -3.0527   -1.1709 H   0  0  0  0  0  0  0  0  0  0  0  0
    8.7893   -6.1382   -1.8569 H   0  0  0  0  0  0  0  0  0  0  0  0
    8.9507   -5.9181    0.5568 H   0  0  0  0  0  0  0  0  0  0  0  0
   11.4544   -4.7370    0.4041 H   0  0  0  0  0  0  0  0  0  0  0  0
   11.8795   -4.6633   -0.9136 H   0  0  0  0  0  0  0  0  0  0  0  0
   11.5171   -7.6638   -1.7610 H   0  0  0  0  0  0  0  0  0  0  0  0
   11.3453   -7.4103    0.0371 H   0  0  0  0  0  0  0  0  0  0  0  0
   13.6106   -6.1521    0.2440 H   0  0  0  0  0  0  0  0  0  0  0  0
   13.9997   -5.7425   -1.5023 H   0  0  0  0  0  0  0  0  0  0  0  0
   13.5039   -9.5433   -1.8864 H   0  0  0  0  0  0  0  0  0  0  0  0
   13.2619   -8.7470   -0.2571 H   0  0  0  0  0  0  0  0  0  0  0  0
   15.7012   -7.5898   -0.1035 H   0  0  0  0  0  0  0  0  0  0  0  0
   16.1057   -7.2436   -1.8004 H   0  0  0  0  0  0  0  0  0  0  0  0
   15.2487   -9.9894   -2.1999 H   0  0  0  0  0  0  0  0  0  0  0  0
   17.3676   -9.5020   -0.3544 H   0  0  0  0  0  0  0  0  0  0  0  0
   18.1047   -8.9395   -1.7745 H   0  0  0  0  0  0  0  0  0  0  0  0
   17.4449  -11.2622   -2.5664 H   0  0  0  0  0  0  0  0  0  0  0  0
   19.4403  -10.4757   -0.4517 H   0  0  0  0  0  0  0  0  0  0  0  0
   20.3514  -10.2508   -1.6915 H   0  0  0  0  0  0  0  0  0  0  0  0
   19.1127  -12.7805   -3.0199 H   0  0  0  0  0  0  0  0  0  0  0  0
   21.3597  -11.7293   -0.9269 H   0  0  0  0  0  0  0  0  0  0  0  0
   21.4079  -11.4499   -2.6194 H   0  0  0  0  0  0  0  0  0  0  0  0
   21.0452  -13.8277   -3.0534 H   0  0  0  0  0  0  0  0  0  0  0  0
   22.8240  -13.0169   -0.5560 H   0  0  0  0  0  0  0  0  0  0  0  0
   23.1029  -11.7923   -2.2584 H   0  0  0  0  0  0  0  0  0  0  0  0
   22.8368  -15.1014   -3.2496 H   0  0  0  0  0  0  0  0  0  0  0  0
   24.8761  -14.5603   -1.3500 H   0  0  0  0  0  0  0  0  0  0  0  0
   23.7186  -14.1242   -3.4429 H   0  0  0  0  0  0  0  0  0  0  0  0
   24.8851  -16.5567   -3.5799 H   0  0  0  0  0  0  0  0  0  0  0  0
   26.9966  -15.9786   -1.5792 H   0  0  0  0  0  0  0  0  0  0  0  0
   26.0993  -15.8360   -4.0474 H   0  0  0  0  0  0  0  0  0  0  0  0
   26.8370  -18.1135   -3.8306 H   0  0  0  0  0  0  0  0  0  0  0  0
   26.9129  -18.3892   -1.9031 H   0  0  0  0  0  0  0  0  0  0  0  0
   29.0126  -17.3537   -1.8335 H   0  0  0  0  0  0  0  0  0  0  0  0
   28.0949  -17.3750   -4.2412 H   0  0  0  0  0  0  0  0  0  0  0  0
   28.9583  -19.5195   -4.2232 H   0  0  0  0  0  0  0  0  0  0  0  0
   28.8182  -19.8446   -2.4815 H   0  0  0  0  0  0  0  0  0  0  0  0
   30.5840  -18.7135   -1.8594 H   0  0  0  0  0  0  0  0  0  0  0  0
   30.9240  -20.7769   -4.2372 H   0  0  0  0  0  0  0  0  0  0  0  0
   30.8975  -21.2461   -2.3364 H   0  0  0  0  0  0  0  0  0  0  0  0
   33.0537  -20.2138   -2.1854 H   0  0  0  0  0  0  0  0  0  0  0  0
   33.0500  -22.2587   -4.4837 H   0  0  0  0  0  0  0  0  0  0  0  0
   32.8191  -22.7744   -2.5801 H   0  0  0  0  0  0  0  0  0  0  0  0
   35.1032  -20.4872   -2.4733 H   0  0  0  0  0  0  0  0  0  0  0  0
   34.9456  -23.9465   -3.7688 H   0  0  0  0  0  0  0  0  0  0  0  0
   36.7263  -21.3759   -3.0506 H   0  0  0  0  0  0  0  0  0  0  0  0
   34.8482  -21.6642   -4.1964 H   0  0  0  0  0  0  0  0  0  0  0  0
   33.1789  -19.6440   -3.8464 H   0  0  0  0  0  0  0  0  0  0  0  0
   31.2011  -18.1547   -3.5666 H   0  0  0  0  0  0  0  0  0  0  0  0
   28.8300  -16.3507   -3.2906 H   0  0  0  0  0  0  0  0  0  0  0  0
   26.4932  -14.7344   -2.8727 H   0  0  0  0  0  0  0  0  0  0  0  0
   23.6427  -13.0628   -2.5560 H   0  0  0  0  0  0  0  0  0  0  0  0
   19.1362  -10.2066   -2.2882 H   0  0  0  0  0  0  0  0  0  0  0  0
  1  2  1  0  0  0  0
  1 46  1  0  0  0  0
  1 47  1  0  0  0  0
  1 48  1  0  0  0  0
  2  3  2  3  0  0  0
  2 45  1  0  0  0  0
  3  4  1  0  0  0  0
  3 49  1  0  0  0  0
  4  5  2  3  0  0  0
  4 50  1  0  0  0  0
  5  6  1  0  0  0  0
  5  8  1  0  0  0  0
  6  7  1  0  0  0  0
  6 51  1  0  0  0  0
  6 52  1  0  0  0  0
  7 53  1  0  0  0  0
  7 54  1  0  0  0  0
  7 55  1  0  0  0  0
  8  9  1  0  0  0  0
  8 56  1  0  0  0  0
  8 57  1  0  0  0  0
  9 10  1  0  0  0  0
  9 58  1  0  0  0  0
  9 59  1  0  0  0  0
 10 11  1  0  0  0  0
 10 60  1  0  0  0  0
 10 61  1  0  0  0  0
 11 12  1  0  0  0  0
 11 62  1  0  0  0  0
 11 63  1  0  0  0  0
 12 13  1  0  0  0  0
 12 64  1  0  0  0  0
 12 65  1  0  0  0  0
 13 14  1  0  0  0  0
 13 66  1  0  0  0  0
 13 67  1  0  0  0  0
 14 15  1  0  0  0  0
 14 68  1  0  0  0  0
 14 69  1  0  0  0  0
 15 16  1  0  0  0  0
 15 70  1  0  0  0  0
 15 71  1  0  0  0  0
 16 17  1  0  0  0  0
 16 72  1  0  0  0  0
 16 73  1  0  0  0  0
 17 18  1  0  0  0  0
 17 74  1  0  0  0  0
 18 19  1  0  0  0  0
 18 75  1  0  0  0  0
 18 76  1  0  0  0  0
 19 20  1  0  0  0  0
 19 77  1  0  0  0  0
 20 21  1  0  0  0  0
 20 78  1  0  0  0  0
 20 79  1  0  0  0  0
 21 22  1  0  0  0  0
 21 80  1  0  0  0  0
 22 23  1  0  0  0  0
 22 81  1  0  0  0  0
 22 82  1  0  0  0  0
 23 24  1  0  0  0  0
 23 83  1  0  0  0  0
 24 25  1  0  0  0  0
 24 84  1  0  0  0  0
 24 85  1  0  0  0  0
 25 26  1  0  0  0  0
 25 86  1  0  0  0  0
 26 27  1  0  0  0  0
 26 87  1  0  0  0  0
 26 88  1  0  0  0  0
 27 28  1  0  0  0  0
 27 89  1  0  0  0  0
 28 29  1  0  0  0  0
 28 90  1  0  0  0  0
 28 91  1  0  0  0  0
 29 30  1  0  0  0  0
 29 92  1  0  0  0  0
 29 93  1  0  0  0  0
 30 31  1  0  0  0  0
 30 94  1  0  0  0  0
 30 95  1  0  0  0  0
 31 32  1  0  0  0  0
 31 96  1  0  0  0  0
 31 97  1  0  0  0  0
 32 33  1  0  0  0  0
 32 98  1  0  0  0  0
 33 34  1  0  0  0  0
 33 99  1  0  0  0  0
 33100  1  0  0  0  0
 34 35  1  0  0  0  0
 34101  1  0  0  0  0
 35 36  1  0  0  0  0
 35102  1  0  0  0  0
 35103  1  0  0  0  0
 36 37  2  3  0  0  0
 36104  1  0  0  0  0
 37 38  1  0  0  0  0
 37105  1  0  0  0  0
 38 39  2  3  0  0  0
 38106  1  0  0  0  0
 39 40  1  0  0  0  0
 39107  1  0  0  0  0
 40 41  2  3  0  0  0
 40108  1  0  0  0  0
 41 42  1  0  0  0  0
 41109  1  0  0  0  0
 42 43  2  3  0  0  0
 42110  1  0  0  0  0
 43 44  1  0  0  0  0
 43111  1  0  0  0  0
 44 45  2  3  0  0  0
 44112  1  0  0  0  0
 45113  1  0  0  0  0
M  END
$$$$
