
 OpenBabel04232217023D

164163  0  0  0  0  0  0  0  0999 V2000
   23.9239   12.2916  -26.8073 O   0  0  0  0  0  0  0  0  0  0  0  0
   23.4420   10.9202  -26.8756 O   0  0  0  0  0  0  0  0  0  0  0  0
   23.7762   10.3497  -25.6121 C   0  0  0  0  0  0  0  0  0  0  0  0
   23.3086    8.9037  -25.5907 C   0  0  0  0  0  0  0  0  0  0  0  0
   23.6487    8.2894  -24.3068 N   0  0  0  0  0  0  0  0  0  0  0  0
   23.1805    6.9625  -24.3120 N   0  0  0  0  0  0  0  0  0  0  0  0
   23.4751    6.3459  -23.0678 N   0  0  0  0  0  0  0  0  0  0  0  0
   23.0119    5.0024  -23.0729 N   0  0  0  0  0  0  0  0  0  0  0  0
   23.6810    4.2557  -24.1101 N   0  0  0  0  0  0  0  0  0  0  0  0
   25.1080    4.2858  -23.9200 N   0  0  0  0  0  0  0  0  0  0  0  0
   25.4447    3.6935  -22.6653 N   0  0  0  0  0  0  0  0  0  0  0  0
   24.9875    2.3414  -22.6342 N   0  0  0  0  0  0  0  0  0  0  0  0
   25.6020    1.6042  -23.6927 N   0  0  0  0  0  0  0  0  0  0  0  0
   27.0221    1.6347  -23.5326 N   0  0  0  0  0  0  0  0  0  0  0  0
   27.3618    1.0783  -22.2636 N   0  0  0  0  0  0  0  0  0  0  0  0
   26.8666   -0.2504  -22.2195 N   0  0  0  0  0  0  0  0  0  0  0  0
   27.4624   -0.9795  -23.2861 N   0  0  0  0  0  0  0  0  0  0  0  0
   28.8840   -0.9849  -23.1399 N   0  0  0  0  0  0  0  0  0  0  0  0
   29.2794   -1.5628  -21.9027 N   0  0  0  0  0  0  0  0  0  0  0  0
   28.8471   -2.9113  -21.8067 N   0  0  0  0  0  0  0  0  0  0  0  0
   29.4203   -3.6968  -22.8466 N   0  0  0  0  0  0  0  0  0  0  0  0
   30.8502   -3.6831  -22.7420 N   0  0  0  0  0  0  0  0  0  0  0  0
   31.2384   -4.2029  -21.4522 N   0  0  0  0  0  0  0  0  0  0  0  0
   30.7319   -5.5566  -21.3546 N   0  0  0  0  0  0  0  0  0  0  0  0
   31.3107   -6.3587  -22.4397 N   0  0  0  0  0  0  0  0  0  0  0  0
   32.7629   -6.3378  -22.3530 N   0  0  0  0  0  0  0  0  0  0  0  0
   33.1808   -6.8664  -21.0807 N   0  0  0  0  0  0  0  0  0  0  0  0
   32.7008   -8.2106  -20.9479 N   0  0  0  0  0  0  0  0  0  0  0  0
   33.2169   -8.9887  -22.0216 N   0  0  0  0  0  0  0  0  0  0  0  0
   34.6358   -8.9423  -21.9513 N   0  0  0  0  0  0  0  0  0  0  0  0
   35.0742   -9.4779  -20.6978 N   0  0  0  0  0  0  0  0  0  0  0  0
   34.6168  -10.8077  -20.5406 N   0  0  0  0  0  0  0  0  0  0  0  0
   35.1271  -11.6303  -21.5650 N   0  0  0  0  0  0  0  0  0  0  0  0
   36.5405  -11.6269  -21.5411 N   0  0  0  0  0  0  0  0  0  0  0  0
   36.9922  -12.1009  -20.2787 N   0  0  0  0  0  0  0  0  0  0  0  0
   36.5293  -13.4550  -20.0836 N   0  0  0  0  0  0  0  0  0  0  0  0
   37.0311  -14.3202  -21.1300 N   0  0  0  0  0  0  0  0  0  0  0  0
   38.4755  -14.3239  -21.1332 N   0  0  0  0  0  0  0  0  0  0  0  0
   38.9555  -14.7859  -19.8510 N   0  0  0  0  0  0  0  0  0  0  0  0
   38.4072  -16.0938  -19.6486 N   0  0  0  0  0  0  0  0  0  0  0  0
   38.8840  -16.9240  -20.7284 N   0  0  0  0  0  0  0  0  0  0  0  0
   40.3258  -16.8987  -20.7285 N   0  0  0  0  0  0  0  0  0  0  0  0
   40.8112  -17.3615  -19.4582 N   0  0  0  0  0  0  0  0  0  0  0  0
   40.3195  -18.6937  -19.2270 N   0  0  0  0  0  0  0  0  0  0  0  0
   40.7848  -19.5606  -20.2738 N   0  0  0  0  0  0  0  0  0  0  0  0
   42.2113  -19.5802  -20.3006 N   0  0  0  0  0  0  0  0  0  0  0  0
   42.7421  -20.0427  -19.0533 N   0  0  0  0  0  0  0  0  0  0  0  0
   42.2868  -21.3851  -18.7824 N   0  0  0  0  0  0  0  0  0  0  0  0
   42.7363  -22.2928  -19.8131 N   0  0  0  0  0  0  0  0  0  0  0  0
   44.1724  -22.2950  -19.8857 N   0  0  0  0  0  0  0  0  0  0  0  0
   44.6838  -22.6918  -18.6166 N   0  0  0  0  0  0  0  0  0  0  0  0
   44.1982  -24.0108  -18.3435 N   0  0  0  0  0  0  0  0  0  0  0  0
   44.5866  -24.8864  -19.3978 N   0  0  0  0  0  0  0  0  0  0  0  0
   46.0021  -24.8969  -19.4809 N   0  0  0  0  0  0  0  0  0  0  0  0
   46.5530  -25.3314  -18.2419 N   0  0  0  0  0  0  0  0  0  0  0  0
   46.0671  -26.6316  -17.9240 N   0  0  0  0  0  0  0  0  0  0  0  0
   46.4722  -27.5594  -18.9483 N   0  0  0  0  0  0  0  0  0  0  0  0
   47.9029  -27.5685  -19.0731 N   0  0  0  0  0  0  0  0  0  0  0  0
   48.4782  -27.9965  -17.8216 N   0  0  0  0  0  0  0  0  0  0  0  0
   47.9525  -29.3002  -17.4897 N   0  0  0  0  0  0  0  0  0  0  0  0
   48.3131  -30.2019  -18.5605 N   0  0  0  0  0  0  0  0  0  0  0  0
   49.7615  -30.2199  -18.6819 N   0  0  0  0  0  0  0  0  0  0  0  0
   50.3418  -30.6310  -17.4153 N   0  0  0  0  0  0  0  0  0  0  0  0
   49.8628  -31.9602  -17.0634 N   0  0  0  0  0  0  0  0  0  0  0  0
   50.2218  -32.9046  -18.0954 N   0  0  0  0  0  0  0  0  0  0  0  0
   51.6418  -32.9229  -18.2440 N   0  0  0  0  0  0  0  0  0  0  0  0
   52.2482  -33.3473  -17.0136 N   0  0  0  0  0  0  0  0  0  0  0  0
   51.7613  -34.6330  -16.6345 N   0  0  0  0  0  0  0  0  0  0  0  0
   52.0915  -35.5724  -17.6477 N   0  0  0  0  0  0  0  0  0  0  0  0
   53.5011  -35.5996  -17.8162 N   0  0  0  0  0  0  0  0  0  0  0  0
   54.1050  -35.9483  -16.5838 N   0  0  0  0  0  0  0  0  0  0  0  0
   53.6246  -37.2342  -16.1850 N   0  0  0  0  0  0  0  0  0  0  0  0
   53.9490  -38.2170  -17.1956 N   0  0  0  0  0  0  0  0  0  0  0  0
   55.3827  -38.2703  -17.4043 N   0  0  0  0  0  0  0  0  0  0  0  0
   56.0096  -38.6064  -16.1491 N   0  0  0  0  0  0  0  0  0  0  0  0
   55.5084  -39.9109  -15.7152 N   0  0  0  0  0  0  0  0  0  0  0  0
   55.8106  -40.9091  -16.7500 N   0  0  0  0  0  0  0  0  0  0  0  0
   57.2568  -40.9761  -16.9562 N   0  0  0  0  0  0  0  0  0  0  0  0
   57.9220  -41.3372  -15.7176 N   0  0  0  0  0  0  0  0  0  0  0  0
   57.4416  -42.6103  -15.2542 N   0  0  0  0  0  0  0  0  0  0  0  0
   57.7025  -43.6156  -16.2458 N   0  0  0  0  0  0  0  0  0  0  0  0
   23.6424   12.5533  -27.7008 H   0  0  0  0  0  0  0  0  0  0  0  0
   23.2860   10.9130  -24.8101 H   0  0  0  0  0  0  0  0  0  0  0  0
   24.8616   10.3919  -25.4637 H   0  0  0  0  0  0  0  0  0  0  0  0
   23.7913    8.3628  -26.4142 H   0  0  0  0  0  0  0  0  0  0  0  0
   22.2261    8.8752  -25.7671 H   0  0  0  0  0  0  0  0  0  0  0  0
   23.1755    8.7944  -23.5607 H   0  0  0  0  0  0  0  0  0  0  0  0
   23.6597    6.4458  -25.0517 H   0  0  0  0  0  0  0  0  0  0  0  0
   23.0474    6.8633  -22.3054 H   0  0  0  0  0  0  0  0  0  0  0  0
   21.9912    4.9860  -23.2022 H   0  0  0  0  0  0  0  0  0  0  0  0
   23.4770    4.6669  -25.0189 H   0  0  0  0  0  0  0  0  0  0  0  0
   25.4448    5.2462  -23.9299 H   0  0  0  0  0  0  0  0  0  0  0  0
   25.0021    4.2066  -21.9095 H   0  0  0  0  0  0  0  0  0  0  0  0
   23.9831    2.3139  -22.7683 H   0  0  0  0  0  0  0  0  0  0  0  0
   25.3726    2.0211  -24.5878 H   0  0  0  0  0  0  0  0  0  0  0  0
   27.3542    2.5891  -23.5556 H   0  0  0  0  0  0  0  0  0  0  0  0
   26.9334    1.6265  -21.5186 H   0  0  0  0  0  0  0  0  0  0  0  0
   25.8514   -0.2824  -22.3229 H   0  0  0  0  0  0  0  0  0  0  0  0
   27.2402   -0.5904  -24.2019 H   0  0  0  0  0  0  0  0  0  0  0  0
   29.2656   -0.0449  -23.1797 H   0  0  0  0  0  0  0  0  0  0  0  0
   28.8841   -1.0525  -21.1225 H   0  0  0  0  0  0  0  0  0  0  0  0
   27.8392   -2.9565  -21.9028 H   0  0  0  0  0  0  0  0  0  0  0  0
   29.1627   -3.2759  -23.7364 H   0  0  0  0  0  0  0  0  0  0  0  0
   31.1324   -2.7017  -22.8048 H   0  0  0  0  0  0  0  0  0  0  0  0
   30.7710   -3.6024  -20.7522 H   0  0  0  0  0  0  0  0  0  0  0  0
   29.7067   -5.4916  -21.4752 H   0  0  0  0  0  0  0  0  0  0  0  0
   31.0380   -5.9107  -23.3233 H   0  0  0  0  0  0  0  0  0  0  0  0
   33.0715   -5.3681  -22.4252 H   0  0  0  0  0  0  0  0  0  0  0  0
   32.7671   -6.2983  -20.3494 H   0  0  0  0  0  0  0  0  0  0  0  0
   31.6937   -8.2136  -21.0245 H   0  0  0  0  0  0  0  0  0  0  0  0
   32.9078   -8.5963  -22.9137 H   0  0  0  0  0  0  0  0  0  0  0  0
   34.9710   -7.9760  -22.0505 H   0  0  0  0  0  0  0  0  0  0  0  0
   34.6942   -8.9282  -19.9264 H   0  0  0  0  0  0  0  0  0  0  0  0
   33.6061  -10.8461  -20.5784 H   0  0  0  0  0  0  0  0  0  0  0  0
   34.8372  -11.2925  -22.4696 H   0  0  0  0  0  0  0  0  0  0  0  0
   36.8707  -10.6721  -21.6524 H   0  0  0  0  0  0  0  0  0  0  0  0
   36.5786  -11.4876  -19.5558 H   0  0  0  0  0  0  0  0  0  0  0  0
   35.4961  -13.4036  -20.1591 H   0  0  0  0  0  0  0  0  0  0  0  0
   36.6954  -13.9004  -22.0066 H   0  0  0  0  0  0  0  0  0  0  0  0
   38.7307  -13.3391  -21.2544 H   0  0  0  0  0  0  0  0  0  0  0  0
   38.5447  -14.1270  -19.1703 H   0  0  0  0  0  0  0  0  0  0  0  0
   37.3815  -16.0118  -19.7017 H   0  0  0  0  0  0  0  0  0  0  0  0
   38.5684  -16.5328  -21.6179 H   0  0  0  0  0  0  0  0  0  0  0  0
   40.6513  -15.9468  -20.8621 H   0  0  0  0  0  0  0  0  0  0  0  0
   40.4820  -16.7477  -18.7155 H   0  0  0  0  0  0  0  0  0  0  0  0
   39.2974  -18.7034  -19.2234 H   0  0  0  0  0  0  0  0  0  0  0  0
   40.4778  -19.2501  -21.1896 H   0  0  0  0  0  0  0  0  0  0  0  0
   42.5906  -18.6539  -20.4679 H   0  0  0  0  0  0  0  0  0  0  0  0
   42.4286  -19.4047  -18.3070 H   0  0  0  0  0  0  0  0  0  0  0  0
   41.2554  -21.3578  -18.7900 H   0  0  0  0  0  0  0  0  0  0  0  0
   42.3731  -21.9236  -20.6941 H   0  0  0  0  0  0  0  0  0  0  0  0
   44.4418  -21.3205  -20.0784 H   0  0  0  0  0  0  0  0  0  0  0  0
   44.3225  -22.0324  -17.9153 H   0  0  0  0  0  0  0  0  0  0  0  0
   43.1811  -23.9878  -18.3515 H   0  0  0  0  0  0  0  0  0  0  0  0
   44.1837  -24.5406  -20.2805 H   0  0  0  0  0  0  0  0  0  0  0  0
   46.3266  -23.9467  -19.6638 H   0  0  0  0  0  0  0  0  0  0  0  0
   46.2370  -24.7086  -17.5058 H   0  0  0  0  0  0  0  0  0  0  0  0
   45.0380  -26.5658  -17.8802 H   0  0  0  0  0  0  0  0  0  0  0  0
   46.0966  -27.2071  -19.8305 H   0  0  0  0  0  0  0  0  0  0  0  0
   48.1876  -26.6001  -19.2939 H   0  0  0  0  0  0  0  0  0  0  0  0
   48.1394  -27.3297  -17.1178 H   0  0  0  0  0  0  0  0  0  0  0  0
   46.9293  -29.2076  -17.4515 H   0  0  0  0  0  0  0  0  0  0  0  0
   47.9219  -29.8128  -19.4261 H   0  0  0  0  0  0  0  0  0  0  0  0
   50.0757  -29.2669  -18.8986 H   0  0  0  0  0  0  0  0  0  0  0  0
   50.0517  -29.9702  -16.6882 H   0  0  0  0  0  0  0  0  0  0  0  0
   48.8448  -31.9322  -16.9617 H   0  0  0  0  0  0  0  0  0  0  0  0
   49.8210  -32.6163  -18.9852 H   0  0  0  0  0  0  0  0  0  0  0  0
   51.9866  -31.9963  -18.5163 H   0  0  0  0  0  0  0  0  0  0  0  0
   52.0059  -32.7013  -16.2653 H   0  0  0  0  0  0  0  0  0  0  0  0
   50.7406  -34.5838  -16.5048 H   0  0  0  0  0  0  0  0  0  0  0  0
   51.6512  -35.2892  -18.5308 H   0  0  0  0  0  0  0  0  0  0  0  0
   53.8354  -34.6693  -18.0590 H   0  0  0  0  0  0  0  0  0  0  0  0
   53.8468  -35.2360  -15.8843 H   0  0  0  0  0  0  0  0  0  0  0  0
   52.5996  -37.1755  -16.0777 H   0  0  0  0  0  0  0  0  0  0  0  0
   53.5224  -37.9139  -18.0740 H   0  0  0  0  0  0  0  0  0  0  0  0
   55.6529  -37.3115  -17.6678 H   0  0  0  0  0  0  0  0  0  0  0  0
   55.7252  -37.8765  -15.4797 H   0  0  0  0  0  0  0  0  0  0  0  0
   54.4797  -39.8151  -15.6180 H   0  0  0  0  0  0  0  0  0  0  0  0
   55.3387  -40.5956  -17.6224 H   0  0  0  0  0  0  0  0  0  0  0  0
   57.5800  -40.0455  -17.2467 H   0  0  0  0  0  0  0  0  0  0  0  0
   57.6919  -40.6197  -15.0195 H   0  0  0  0  0  0  0  0  0  0  0  0
   56.4292  -42.5387  -15.1185 H   0  0  0  0  0  0  0  0  0  0  0  0
   58.7036  -43.5930  -16.4306 H   0  0  0  0  0  0  0  0  0  0  0  0
   57.2562  -43.3170  -17.1201 H   0  0  0  0  0  0  0  0  0  0  0  0
  1  2  1  0  0  0  0
  1 82  1  0  0  0  0
  2  3  1  0  0  0  0
  3  4  1  0  0  0  0
  3 83  1  0  0  0  0
  3 84  1  0  0  0  0
  4  5  1  0  0  0  0
  4 85  1  0  0  0  0
  4 86  1  0  0  0  0
  5  6  1  0  0  0  0
  5 87  1  0  0  0  0
  6  7  1  0  0  0  0
  6 88  1  0  0  0  0
  7  8  1  0  0  0  0
  7 89  1  0  0  0  0
  8  9  1  0  0  0  0
  8 90  1  0  0  0  0
  9 10  1  0  0  0  0
  9 91  1  0  0  0  0
 10 11  1  0  0  0  0
 10 92  1  0  0  0  0
 11 12  1  0  0  0  0
 11 93  1  0  0  0  0
 12 13  1  0  0  0  0
 12 94  1  0  0  0  0
 13 14  1  0  0  0  0
 13 95  1  0  0  0  0
 14 15  1  0  0  0  0
 14 96  1  0  0  0  0
 15 16  1  0  0  0  0
 15 97  1  0  0  0  0
 16 17  1  0  0  0  0
 16 98  1  0  0  0  0
 17 18  1  0  0  0  0
 17 99  1  0  0  0  0
 18 19  1  0  0  0  0
 18100  1  0  0  0  0
 19 20  1  0  0  0  0
 19101  1  0  0  0  0
 20 21  1  0  0  0  0
 20102  1  0  0  0  0
 21 22  1  0  0  0  0
 21103  1  0  0  0  0
 22 23  1  0  0  0  0
 22104  1  0  0  0  0
 23 24  1  0  0  0  0
 23105  1  0  0  0  0
 24 25  1  0  0  0  0
 24106  1  0  0  0  0
 25 26  1  0  0  0  0
 25107  1  0  0  0  0
 26 27  1  0  0  0  0
 26108  1  0  0  0  0
 27 28  1  0  0  0  0
 27109  1  0  0  0  0
 28 29  1  0  0  0  0
 28110  1  0  0  0  0
 29 30  1  0  0  0  0
 29111  1  0  0  0  0
 30 31  1  0  0  0  0
 30112  1  0  0  0  0
 31 32  1  0  0  0  0
 31113  1  0  0  0  0
 32 33  1  0  0  0  0
 32114  1  0  0  0  0
 33 34  1  0  0  0  0
 33115  1  0  0  0  0
 34 35  1  0  0  0  0
 34116  1  0  0  0  0
 35 36  1  0  0  0  0
 35117  1  0  0  0  0
 36 37  1  0  0  0  0
 36118  1  0  0  0  0
 37 38  1  0  0  0  0
 37119  1  0  0  0  0
 38 39  1  0  0  0  0
 38120  1  0  0  0  0
 39 40  1  0  0  0  0
 39121  1  0  0  0  0
 40 41  1  0  0  0  0
 40122  1  0  0  0  0
 41 42  1  0  0  0  0
 41123  1  0  0  0  0
 42 43  1  0  0  0  0
 42124  1  0  0  0  0
 43 44  1  0  0  0  0
 43125  1  0  0  0  0
 44 45  1  0  0  0  0
 44126  1  0  0  0  0
 45 46  1  0  0  0  0
 45127  1  0  0  0  0
 46 47  1  0  0  0  0
 46128  1  0  0  0  0
 47 48  1  0  0  0  0
 47129  1  0  0  0  0
 48 49  1  0  0  0  0
 48130  1  0  0  0  0
 49 50  1  0  0  0  0
 49131  1  0  0  0  0
 50 51  1  0  0  0  0
 50132  1  0  0  0  0
 51 52  1  0  0  0  0
 51133  1  0  0  0  0
 52 53  1  0  0  0  0
 52134  1  0  0  0  0
 53 54  1  0  0  0  0
 53135  1  0  0  0  0
 54 55  1  0  0  0  0
 54136  1  0  0  0  0
 55 56  1  0  0  0  0
 55137  1  0  0  0  0
 56 57  1  0  0  0  0
 56138  1  0  0  0  0
 57 58  1  0  0  0  0
 57139  1  0  0  0  0
 58 59  1  0  0  0  0
 58140  1  0  0  0  0
 59 60  1  0  0  0  0
 59141  1  0  0  0  0
 60 61  1  0  0  0  0
 60142  1  0  0  0  0
 61 62  1  0  0  0  0
 61143  1  0  0  0  0
 62 63  1  0  0  0  0
 62144  1  0  0  0  0
 63 64  1  0  0  0  0
 63145  1  0  0  0  0
 64 65  1  0  0  0  0
 64146  1  0  0  0  0
 65 66  1  0  0  0  0
 65147  1  0  0  0  0
 66 67  1  0  0  0  0
 66148  1  0  0  0  0
 67 68  1  0  0  0  0
 67149  1  0  0  0  0
 68 69  1  0  0  0  0
 68150  1  0  0  0  0
 69 70  1  0  0  0  0
 69151  1  0  0  0  0
 70 71  1  0  0  0  0
 70152  1  0  0  0  0
 71 72  1  0  0  0  0
 71153  1  0  0  0  0
 72 73  1  0  0  0  0
 72154  1  0  0  0  0
 73 74  1  0  0  0  0
 73155  1  0  0  0  0
 74 75  1  0  0  0  0
 74156  1  0  0  0  0
 75 76  1  0  0  0  0
 75157  1  0  0  0  0
 76 77  1  0  0  0  0
 76158  1  0  0  0  0
 77 78  1  0  0  0  0
 77159  1  0  0  0  0
 78 79  1  0  0  0  0
 78160  1  0  0  0  0
 79 80  1  0  0  0  0
 79161  1  0  0  0  0
 80 81  1  0  0  0  0
 80162  1  0  0  0  0
 81163  1  0  0  0  0
 81164  1  0  0  0  0
M  END
$$$$
