
 OpenBabel04232216393D

 62 63  0  0  0  0  0  0  0  0999 V2000
    9.3732   -4.4929   -0.7131 C   0  0  0  0  0  0  0  0  0  0  0  0
    8.2999   -4.0386   -1.3926 C   0  0  0  0  0  0  0  0  0  0  0  0
    7.0462   -4.2922   -0.6878 C   0  0  0  0  0  0  0  0  0  0  0  0
    6.3276   -3.2614   -0.1986 C   0  0  0  0  0  0  0  0  0  0  0  0
    5.0825   -3.0054   -0.9320 C   0  0  0  0  0  0  0  0  0  0  0  0
    4.1922   -4.1785   -1.1914 C   0  0  0  0  0  0  0  0  0  0  0  0
    2.7162   -3.8830   -0.9768 C   0  0  0  0  0  0  0  0  0  0  0  0
    1.8938   -5.1221   -1.2954 C   0  0  0  0  0  0  0  0  0  0  0  0
    2.3102   -6.2906   -0.4129 C   0  0  0  0  0  0  0  0  0  0  0  0
    1.5376   -7.5429   -0.7489 C   0  0  0  0  0  0  0  0  0  0  0  0
    2.0369   -8.6700    0.1403 C   0  0  0  0  0  0  0  0  0  0  0  0
    1.2583   -9.9412   -0.1548 C   0  0  0  0  0  0  0  0  0  0  0  0
    1.6818  -11.0386    0.7491 C   0  0  0  0  0  0  0  0  0  0  0  0
    2.2810  -12.1996    0.3976 C   0  0  0  0  0  0  0  0  0  0  0  0
    2.5131  -12.9062    1.6553 C   0  0  0  0  0  0  0  0  0  0  0  0
    3.0904  -14.1070    1.7168 C   0  0  0  0  0  0  0  0  0  0  0  0
    2.0059  -12.1137    2.7407 C   0  0  0  0  0  0  0  0  0  0  0  0
    2.0314  -12.4390    4.1878 C   0  0  0  0  0  0  0  0  0  0  0  0
    1.5014  -10.9954    2.1903 C   0  0  0  0  0  0  0  0  0  0  0  0
    5.0897   -1.8709   -1.6476 C   0  0  0  0  0  0  0  0  0  0  0  0
    4.4373   -1.6739   -2.9242 C   0  0  0  0  0  0  0  0  0  0  0  0
    4.9088   -0.6775   -3.6897 C   0  0  0  0  0  0  0  0  0  0  0  0
    5.0852   -0.8950   -5.1194 C   0  0  0  0  0  0  0  0  0  0  0  0
    6.3374   -0.6214   -5.4976 C   0  0  0  0  0  0  0  0  0  0  0  0
    7.3379   -1.6166   -5.8186 C   0  0  0  0  0  0  0  0  0  0  0  0
    7.9697   -2.4921   -5.0012 C   0  0  0  0  0  0  0  0  0  0  0  0
    7.6566   -3.0606   -3.6663 C   0  0  0  0  0  0  0  0  0  0  0  0
    8.4715   -3.1348   -2.5787 C   0  0  0  0  0  0  0  0  0  0  0  0
    9.2300   -5.4564   -0.1999 H   0  0  0  0  0  0  0  0  0  0  0  0
    9.6312   -3.8672    0.1553 H   0  0  0  0  0  0  0  0  0  0  0  0
    6.6030   -5.2620   -0.8982 H   0  0  0  0  0  0  0  0  0  0  0  0
    6.8640   -2.3494    0.0694 H   0  0  0  0  0  0  0  0  0  0  0  0
    4.4906   -4.9724   -0.5010 H   0  0  0  0  0  0  0  0  0  0  0  0
    4.3690   -4.5704   -2.2034 H   0  0  0  0  0  0  0  0  0  0  0  0
    2.3796   -3.0624   -1.6167 H   0  0  0  0  0  0  0  0  0  0  0  0
    2.5450   -3.5707    0.0615 H   0  0  0  0  0  0  0  0  0  0  0  0
    2.0260   -5.3869   -2.3525 H   0  0  0  0  0  0  0  0  0  0  0  0
    0.8312   -4.8975   -1.1487 H   0  0  0  0  0  0  0  0  0  0  0  0
    2.1827   -6.0201    0.6435 H   0  0  0  0  0  0  0  0  0  0  0  0
    3.3653   -6.5391   -0.5549 H   0  0  0  0  0  0  0  0  0  0  0  0
    1.6982   -7.8016   -1.8024 H   0  0  0  0  0  0  0  0  0  0  0  0
    0.4652   -7.3772   -0.6014 H   0  0  0  0  0  0  0  0  0  0  0  0
    1.9253   -8.3748    1.1916 H   0  0  0  0  0  0  0  0  0  0  0  0
    3.1112   -8.8339   -0.0255 H   0  0  0  0  0  0  0  0  0  0  0  0
    1.4072  -10.2224   -1.2034 H   0  0  0  0  0  0  0  0  0  0  0  0
    0.1847   -9.7580   -0.0248 H   0  0  0  0  0  0  0  0  0  0  0  0
    2.5712  -12.5179   -0.5685 H   0  0  0  0  0  0  0  0  0  0  0  0
    3.4345  -14.6218    0.8050 H   0  0  0  0  0  0  0  0  0  0  0  0
    3.2589  -14.6260    2.6425 H   0  0  0  0  0  0  0  0  0  0  0  0
    2.3254  -13.4747    4.3802 H   0  0  0  0  0  0  0  0  0  0  0  0
    1.0478  -12.2912    4.6343 H   0  0  0  0  0  0  0  0  0  0  0  0
    2.7508  -11.7864    4.7159 H   0  0  0  0  0  0  0  0  0  0  0  0
    1.0527  -10.1687    2.7138 H   0  0  0  0  0  0  0  0  0  0  0  0
    5.8969   -1.1617   -1.4478 H   0  0  0  0  0  0  0  0  0  0  0  0
    3.8967   -2.5047   -3.3699 H   0  0  0  0  0  0  0  0  0  0  0  0
    5.5962    0.0409   -3.2382 H   0  0  0  0  0  0  0  0  0  0  0  0
    4.5268   -1.7300   -5.5397 H   0  0  0  0  0  0  0  0  0  0  0  0
    6.8282    0.2711   -5.0937 H   0  0  0  0  0  0  0  0  0  0  0  0
    7.7210   -1.4974   -6.8308 H   0  0  0  0  0  0  0  0  0  0  0  0
    8.8352   -2.9855   -5.4441 H   0  0  0  0  0  0  0  0  0  0  0  0
    6.7644   -3.6843   -3.6932 H   0  0  0  0  0  0  0  0  0  0  0  0
    9.3894   -2.5603   -2.5665 H   0  0  0  0  0  0  0  0  0  0  0  0
  1  2  2  0  0  0  0
  1 29  1  0  0  0  0
  1 30  1  0  0  0  0
  2  3  1  0  0  0  0
  2 28  1  0  0  0  0
  3  4  2  3  0  0  0
  3 31  1  0  0  0  0
  4  5  1  0  0  0  0
  4 32  1  0  0  0  0
  5  6  1  0  0  0  0
  5 20  2  3  0  0  0
  6  7  1  0  0  0  0
  6 33  1  0  0  0  0
  6 34  1  0  0  0  0
  7  8  1  0  0  0  0
  7 35  1  0  0  0  0
  7 36  1  0  0  0  0
  8  9  1  0  0  0  0
  8 37  1  0  0  0  0
  8 38  1  0  0  0  0
  9 10  1  0  0  0  0
  9 39  1  0  0  0  0
  9 40  1  0  0  0  0
 10 11  1  0  0  0  0
 10 41  1  0  0  0  0
 10 42  1  0  0  0  0
 11 12  1  0  0  0  0
 11 43  1  0  0  0  0
 11 44  1  0  0  0  0
 12 13  1  0  0  0  0
 12 45  1  0  0  0  0
 12 46  1  0  0  0  0
 13 14  2  0  0  0  0
 13 19  1  0  0  0  0
 14 15  1  0  0  0  0
 14 47  1  0  0  0  0
 15 16  2  0  0  0  0
 15 17  1  0  0  0  0
 16 48  1  0  0  0  0
 16 49  1  0  0  0  0
 17 18  1  0  0  0  0
 17 19  2  0  0  0  0
 18 50  1  0  0  0  0
 18 51  1  0  0  0  0
 18 52  1  0  0  0  0
 19 53  1  0  0  0  0
 20 21  1  0  0  0  0
 20 54  1  0  0  0  0
 21 22  2  3  0  0  0
 21 55  1  0  0  0  0
 22 23  1  0  0  0  0
 22 56  1  0  0  0  0
 23 24  2  3  0  0  0
 23 57  1  0  0  0  0
 24 25  1  0  0  0  0
 24 58  1  0  0  0  0
 25 26  2  3  0  0  0
 25 59  1  0  0  0  0
 26 27  1  0  0  0  0
 26 60  1  0  0  0  0
 27 28  2  3  0  0  0
 27 61  1  0  0  0  0
 28 62  1  0  0  0  0
M  END
$$$$
