
 OpenBabel04232216463D

 55 56  0  0  0  0  0  0  0  0999 V2000
   10.4169   -2.2458   -4.6365 C   0  0  0  0  0  0  0  0  0  0  0  0
   11.2013   -1.2741   -3.8599 C   0  0  0  0  0  0  0  0  0  0  0  0
   10.8458   -0.5724   -2.6720 C   0  0  0  0  0  0  0  0  0  0  0  0
   12.0966   -0.0278   -2.7008 C   0  0  0  0  0  0  0  0  0  0  0  0
   12.9331    0.9424   -1.8643 C   0  0  0  0  0  0  0  0  0  0  0  0
   12.1846    1.7404   -0.7805 C   0  0  0  0  0  0  0  0  0  0  0  0
   13.1546    2.6311    0.0305 C   0  0  0  0  0  0  0  0  0  0  0  0
   12.5508    3.6224    1.0481 C   0  0  0  0  0  0  0  0  0  0  0  0
   12.0536    3.1063    2.4123 C   0  0  0  0  0  0  0  0  0  0  0  0
   13.0285    2.4350    3.4384 C   0  0  0  0  0  0  0  0  0  0  0  0
   13.8843    3.2535    4.5184 C   0  0  0  0  0  0  0  0  0  0  0  0
   15.4610    3.2723    4.6808 C   0  0  0  0  0  0  0  0  0  0  0  0
   16.1472    2.1538    4.0029 C   0  0  0  0  0  0  0  0  0  0  0  0
   17.4232    1.8031    4.2616 C   0  0  0  0  0  0  0  0  0  0  0  0
   18.5116    2.3036    3.3894 C   0  0  0  0  0  0  0  0  0  0  0  0
   18.3368    3.4984    2.7875 C   0  0  0  0  0  0  0  0  0  0  0  0
   19.1944    4.6462    3.0391 C   0  0  0  0  0  0  0  0  0  0  0  0
   18.8575    5.4959    4.0397 C   0  0  0  0  0  0  0  0  0  0  0  0
   19.2692    6.9421    4.2013 C   0  0  0  0  0  0  0  0  0  0  0  0
   18.6717    4.8502    5.3461 C   0  0  0  0  0  0  0  0  0  0  0  0
   20.0741    4.6471    5.9768 C   0  0  0  0  0  0  0  0  0  0  0  0
   17.5206    4.3710    5.8759 C   0  0  0  0  0  0  0  0  0  0  0  0
   16.1114    4.2628    5.3838 C   0  0  0  0  0  0  0  0  0  0  0  0
   12.3667   -0.7732   -3.8877 N   0  0  0  0  0  0  0  0  0  0  0  0
    9.3783   -2.2907   -4.2852 H   0  0  0  0  0  0  0  0  0  0  0  0
   10.8610   -3.2443   -4.5480 H   0  0  0  0  0  0  0  0  0  0  0  0
   10.4297   -1.9540   -5.6930 H   0  0  0  0  0  0  0  0  0  0  0  0
   10.0277   -0.4429   -1.9870 H   0  0  0  0  0  0  0  0  0  0  0  0
   13.4772    1.5957   -2.5603 H   0  0  0  0  0  0  0  0  0  0  0  0
   13.7482    0.3555   -1.4137 H   0  0  0  0  0  0  0  0  0  0  0  0
   11.6562    1.0511   -0.1123 H   0  0  0  0  0  0  0  0  0  0  0  0
   11.4215    2.3592   -1.2721 H   0  0  0  0  0  0  0  0  0  0  0  0
   13.6960    3.2415   -0.7061 H   0  0  0  0  0  0  0  0  0  0  0  0
   13.9003    2.0033    0.5262 H   0  0  0  0  0  0  0  0  0  0  0  0
   11.7081    4.1289    0.5514 H   0  0  0  0  0  0  0  0  0  0  0  0
   13.2925    4.4034    1.2440 H   0  0  0  0  0  0  0  0  0  0  0  0
   11.2625    2.3735    2.1834 H   0  0  0  0  0  0  0  0  0  0  0  0
   11.5277    3.9307    2.9136 H   0  0  0  0  0  0  0  0  0  0  0  0
   13.5933    1.6339    2.9592 H   0  0  0  0  0  0  0  0  0  0  0  0
   12.3010    1.9009    4.0774 H   0  0  0  0  0  0  0  0  0  0  0  0
   13.6016    2.7447    5.4582 H   0  0  0  0  0  0  0  0  0  0  0  0
   13.4737    4.2643    4.6219 H   0  0  0  0  0  0  0  0  0  0  0  0
   15.8042    2.0512    2.9749 H   0  0  0  0  0  0  0  0  0  0  0  0
   17.7770    1.8201    5.2964 H   0  0  0  0  0  0  0  0  0  0  0  0
   19.5082    2.0156    3.7165 H   0  0  0  0  0  0  0  0  0  0  0  0
   17.3188    3.8591    2.6039 H   0  0  0  0  0  0  0  0  0  0  0  0
   20.1756    4.6968    2.5794 H   0  0  0  0  0  0  0  0  0  0  0  0
   18.3592    7.5465    4.3151 H   0  0  0  0  0  0  0  0  0  0  0  0
   19.8228    7.3279    3.3432 H   0  0  0  0  0  0  0  0  0  0  0  0
   19.8657    7.1326    5.1018 H   0  0  0  0  0  0  0  0  0  0  0  0
   20.4134    3.6096    5.8633 H   0  0  0  0  0  0  0  0  0  0  0  0
   20.1297    4.9480    7.0239 H   0  0  0  0  0  0  0  0  0  0  0  0
   20.8568    5.2315    5.4591 H   0  0  0  0  0  0  0  0  0  0  0  0
   17.6132    3.9741    6.8896 H   0  0  0  0  0  0  0  0  0  0  0  0
   15.5027    5.0588    5.8134 H   0  0  0  0  0  0  0  0  0  0  0  0
  1  2  1  0  0  0  0
  1 25  1  0  0  0  0
  1 26  1  0  0  0  0
  1 27  1  0  0  0  0
  2  3  1  0  0  0  0
  2 24  2  0  0  0  0
  3  4  2  0  0  0  0
  3 28  1  0  0  0  0
  4  5  1  0  0  0  0
  4 24  1  0  0  0  0
  5  6  1  0  0  0  0
  5 29  1  0  0  0  0
  5 30  1  0  0  0  0
  6  7  1  0  0  0  0
  6 31  1  0  0  0  0
  6 32  1  0  0  0  0
  7  8  1  0  0  0  0
  7 33  1  0  0  0  0
  7 34  1  0  0  0  0
  8  9  1  0  0  0  0
  8 35  1  0  0  0  0
  8 36  1  0  0  0  0
  9 10  1  0  0  0  0
  9 37  1  0  0  0  0
  9 38  1  0  0  0  0
 10 11  1  0  0  0  0
 10 39  1  0  0  0  0
 10 40  1  0  0  0  0
 11 12  1  0  0  0  0
 11 41  1  0  0  0  0
 11 42  1  0  0  0  0
 12 13  1  0  0  0  0
 12 23  2  0  0  0  0
 13 14  2  0  0  0  0
 13 43  1  0  0  0  0
 14 15  1  0  0  0  0
 14 44  1  0  0  0  0
 15 16  2  0  0  0  0
 15 45  1  0  0  0  0
 16 17  1  0  0  0  0
 16 46  1  0  0  0  0
 17 18  2  0  0  0  0
 17 47  1  0  0  0  0
 18 19  1  0  0  0  0
 18 20  1  0  0  0  0
 19 48  1  0  0  0  0
 19 49  1  0  0  0  0
 19 50  1  0  0  0  0
 20 21  1  0  0  0  0
 20 22  2  0  0  0  0
 21 51  1  0  0  0  0
 21 52  1  0  0  0  0
 21 53  1  0  0  0  0
 22 23  1  0  0  0  0
 22 54  1  0  0  0  0
 23 55  1  0  0  0  0
M  END
$$$$
