
 OpenBabel04232216513D

149149  0  0  1  0  0  0  0  0999 V2000
  -50.2447 -147.4397  -74.2869 C   0  0  0  0  0  0  0  0  0  0  0  0
  -46.4640 -147.6821  -71.5078 C   0  0  0  0  0  0  0  0  0  0  0  0
  -42.3792 -148.0565  -68.3341 C   0  0  3  0  0  0  0  0  0  0  0  0
  -46.5430 -148.0903  -71.3623 C   0  0  0  0  0  0  0  0  0  0  0  0
  -49.7146 -148.3556  -73.8592 C   0  0  0  0  0  0  0  0  0  0  0  0
  -53.2539 -148.3401  -76.5741 C   0  0  0  0  0  0  0  0  0  0  0  0
  -55.8990 -148.0724  -78.6721 C   0  0  0  0  0  0  0  0  0  0  0  0
  -58.0995 -147.4655  -81.0792 C   0  0  0  0  0  0  0  0  0  0  0  0
  -58.7810 -146.7218  -80.1738 C   0  0  0  0  0  0  0  0  0  0  0  0
  -56.7342 -147.2033  -80.6712 C   0  0  0  0  0  0  0  0  0  0  0  0
  -56.6639 -146.4626  -78.8816 C   0  0  0  0  0  0  0  0  0  0  0  0
  -55.1620 -147.7521  -79.7415 C   0  0  0  0  0  0  0  0  0  0  0  0
  -54.1497 -147.7782  -78.8217 C   0  0  0  0  0  0  0  0  0  0  0  0
  -52.9322 -147.2605  -78.0431 C   0  0  0  0  0  0  0  0  0  0  0  0
  -52.1535 -146.4172  -76.3466 C   0  0  0  0  0  0  0  0  0  0  0  0
  -50.4164 -147.6807  -76.6851 C   0  0  0  0  0  0  0  0  0  0  0  0
  -50.5204 -148.4621  -75.7818 C   0  0  0  0  0  0  0  0  0  0  0  0
  -49.2654 -147.8368  -75.3745 C   0  0  0  0  0  0  0  0  0  0  0  0
  -48.6027 -149.0229  -74.0646 C   0  0  0  0  0  0  0  0  0  0  0  0
  -46.7534 -148.2399  -73.4251 C   0  0  0  0  0  0  0  0  0  0  0  0
  -45.1228 -148.4846  -72.6707 C   0  0  0  0  0  0  0  0  0  0  0  0
  -45.0952 -147.6791  -71.7662 C   0  0  0  0  0  0  0  0  0  0  0  0
  -44.7941 -146.6116  -70.4324 C   0  0  0  0  0  0  0  0  0  0  0  0
  -43.5005 -148.1515  -71.3336 C   0  0  0  0  0  0  0  0  0  0  0  0
  -42.5077 -148.5898  -69.8352 C   0  0  0  0  0  0  0  0  0  0  0  0
  -41.3970 -147.9168  -69.4011 C   0  0  0  0  0  0  0  0  0  0  0  0
  -41.1746 -148.0052  -67.9995 C   0  0  0  0  0  0  0  0  0  0  0  0
  -39.8816 -148.1074  -67.8626 C   0  0  0  0  0  0  0  0  0  0  0  0
  -39.1227 -147.8440  -66.7296 C   0  0  0  0  0  0  0  0  0  0  0  0
  -37.2497 -148.5020  -66.8300 C   0  0  0  0  0  0  0  0  0  0  0  0
  -36.0150 -149.5762  -65.9879 C   0  0  0  0  0  0  0  0  0  0  0  0
  -35.5121 -148.2993  -64.9585 C   0  0  0  0  0  0  0  0  0  0  0  0
  -35.2814 -148.2066  -63.6983 C   0  0  0  0  0  0  0  0  0  0  0  0
  -33.8663 -148.2791  -63.7419 C   0  0  0  0  0  0  0  0  0  0  0  0
  -33.7953 -147.7795  -62.8307 C   0  0  0  0  0  0  0  0  0  0  0  0
  -31.6491 -147.9831  -62.7238 C   0  0  0  0  0  0  0  0  0  0  0  0
  -31.3189 -147.4006  -61.1827 C   0  0  0  0  0  0  0  0  0  0  0  0
  -29.6915 -147.8218  -60.6313 C   0  0  0  0  0  0  0  0  0  0  0  0
  -29.4561 -148.7796  -61.2341 C   0  0  0  0  0  0  0  0  0  0  0  0
  -27.9253 -148.4077  -59.8222 C   0  0  0  0  0  0  0  0  0  0  0  0
  -28.5131 -147.5215  -57.8224 C   0  0  0  0  0  0  0  0  0  0  0  0
  -26.4391 -147.6225  -57.1968 C   0  0  0  0  0  0  0  0  0  0  0  0
  -25.7489 -148.5754  -58.3718 C   0  0  0  0  0  0  0  0  0  0  0  0
  -24.0141 -147.4713  -58.2513 C   0  0  0  0  0  0  0  0  0  0  0  0
  -23.3257 -147.8703  -56.3376 C   0  0  0  0  0  0  0  0  0  0  0  0
  -21.5960 -148.4386  -55.2507 C   0  0  0  0  0  0  0  0  0  0  0  0
  -21.3215 -147.4509  -54.1234 C   0  0  0  0  0  0  0  0  0  0  0  0
  -19.6482 -148.1864  -53.8586 C   0  0  0  0  0  0  0  0  0  0  0  0
  -18.8138 -147.4910  -52.4894 C   0  0  0  0  0  0  0  0  0  0  0  0
  -17.5314 -148.4442  -52.4008 C   0  0  0  0  0  0  0  0  0  0  0  0
  -16.9479 -148.0641  -51.3233 C   0  0  0  0  0  0  0  0  0  0  0  0
  -15.3453 -148.6245  -51.0300 C   0  0  0  0  0  0  0  0  0  0  0  0
  -14.4747 -148.2732  -50.0337 C   0  0  0  0  0  0  0  0  0  0  0  0
  -13.4314 -148.8246  -49.4666 C   0  0  0  0  0  0  0  0  0  0  0  0
  -13.0674 -147.9698  -48.5880 C   0  0  0  0  0  0  0  0  0  0  0  0
  -11.5388 -148.4186  -48.3521 C   0  0  0  0  0  0  0  0  0  0  0  0
  -10.5983 -147.4836  -46.8301 C   0  0  0  0  0  0  0  0  0  0  0  0
   -9.0207 -147.8580  -46.4325 C   0  0  0  0  0  0  0  0  0  0  0  0
   -8.2509 -147.8239  -45.5814 C   0  0  0  0  0  0  0  0  0  0  0  0
   -6.6859 -149.2360  -44.8391 C   0  0  0  0  0  0  0  0  0  0  0  0
   -7.2426 -149.8398  -43.2730 C   0  0  0  0  0  0  0  0  0  0  0  0
   -5.0653 -148.8890  -43.4546 C   0  0  0  0  0  0  0  0  0  0  0  0
   -5.5749 -149.4684  -41.6144 C   0  0  0  0  0  0  0  0  0  0  0  0
   -5.2462 -149.2171  -40.4678 C   0  0  0  0  0  0  0  0  0  0  0  0
   -6.5581 -149.0459  -42.6586 C   0  0  0  0  0  0  0  0  0  0  0  0
   -9.4815 -148.7104  -45.2330 C   0  0  0  0  0  0  0  0  0  0  0  0
  -12.5618 -148.6889  -47.1957 C   0  0  0  0  0  0  0  0  0  0  0  0
  -16.5056 -148.6390  -50.1119 C   0  0  0  0  0  0  0  0  0  0  0  0
  -20.1440 -148.6321  -52.7546 C   0  0  0  0  0  0  0  0  0  0  0  0
  -24.5756 -148.4991  -56.0533 C   0  0  0  0  0  0  0  0  0  0  0  0
  -28.6838 -148.6948  -58.5115 C   0  0  0  0  0  0  0  0  0  0  0  0
  -33.2137 -148.5483  -62.1403 C   0  0  0  0  0  0  0  0  0  0  0  0
  -37.3469 -148.3832  -64.6947 C   0  0  0  0  0  0  0  0  0  0  0  0
  -52.6541 -147.3122  -76.1039 H   0  0  0  0  0  0  0  0  0  0  0  0
  -52.6425 -147.3119  -76.1239 H   0  0  0  0  0  0  0  0  0  0  0  0
  -52.6657 -147.3094  -76.0855 H   0  0  0  0  0  0  0  0  0  0  0  0
  -48.6607 -147.4637  -73.3307 H   0  0  0  0  0  0  0  0  0  0  0  0
  -48.6722 -147.4578  -73.3163 H   0  0  0  0  0  0  0  0  0  0  0  0
  -44.4668 -147.8583  -69.9416 H   0  0  0  0  0  0  0  0  0  0  0  0
  -48.7605 -148.3639  -72.9305 H   0  0  0  0  0  0  0  0  0  0  0  0
  -52.0503 -148.2658  -75.5577 H   0  0  0  0  0  0  0  0  0  0  0  0
  -55.5602 -148.1460  -78.3709 H   0  0  0  0  0  0  0  0  0  0  0  0
  -58.3016 -148.0017  -80.4725 H   0  0  0  0  0  0  0  0  0  0  0  0
  -59.0279 -147.4726  -83.1278 H   0  0  0  0  0  0  0  0  0  0  0  0
  -60.2423 -147.6008  -80.0810 H   0  0  0  0  0  0  0  0  0  0  0  0
  -56.7486 -148.7541  -80.4243 H   0  0  0  0  0  0  0  0  0  0  0  0
  -57.8276 -147.1278  -77.5950 H   0  0  0  0  0  0  0  0  0  0  0  0
  -55.2380 -147.5942  -80.4412 H   0  0  0  0  0  0  0  0  0  0  0  0
  -55.2699 -147.8033  -77.2570 H   0  0  0  0  0  0  0  0  0  0  0  0
  -53.8186 -147.4541  -78.8645 H   0  0  0  0  0  0  0  0  0  0  0  0
  -53.9152 -147.5035  -75.7554 H   0  0  0  0  0  0  0  0  0  0  0  0
  -50.3560 -146.5570  -76.3395 H   0  0  0  0  0  0  0  0  0  0  0  0
  -51.9893 -147.9673  -74.5511 H   0  0  0  0  0  0  0  0  0  0  0  0
  -50.0328 -146.4563  -74.3736 H   0  0  0  0  0  0  0  0  0  0  0  0
  -49.9963 -148.1321  -72.8354 H   0  0  0  0  0  0  0  0  0  0  0  0
  -47.0540 -148.9227  -72.3657 H   0  0  0  0  0  0  0  0  0  0  0  0
  -45.9737 -148.6571  -72.0884 H   0  0  0  0  0  0  0  0  0  0  0  0
  -45.3215 -148.8072  -71.4751 H   0  0  0  0  0  0  0  0  0  0  0  0
  -45.9736 -147.8094  -69.9132 H   0  0  0  0  0  0  0  0  0  0  0  0
  -43.7424 -149.3454  -72.8000 H   0  0  0  0  0  0  0  0  0  0  0  0
  -43.9977 -148.1342  -68.6057 H   0  0  0  0  0  0  0  0  0  0  0  0
  -41.3267 -148.7226  -69.8784 H   0  0  0  0  0  0  0  0  0  0  0  0
  -42.0227 -148.0965  -67.2031 H   0  0  0  0  0  0  0  0  0  0  0  0
  -39.4448 -147.3206  -67.3547 H   0  0  0  0  0  0  0  0  0  0  0  0
  -40.0168 -148.0427  -65.7025 H   0  0  0  0  0  0  0  0  0  0  0  0
  -36.7775 -148.7713  -65.9830 H   0  0  0  0  0  0  0  0  0  0  0  0
  -37.1540 -149.0390  -66.9797 H   0  0  0  0  0  0  0  0  0  0  0  0
  -35.1160 -149.0232  -64.4624 H   0  0  0  0  0  0  0  0  0  0  0  0
  -35.9370 -148.2309  -62.8822 H   0  0  0  0  0  0  0  0  0  0  0  0
  -33.5893 -148.4200  -62.9409 H   0  0  0  0  0  0  0  0  0  0  0  0
  -34.1936 -148.2155  -61.3613 H   0  0  0  0  0  0  0  0  0  0  0  0
  -31.2139 -147.4974  -61.6072 H   0  0  0  0  0  0  0  0  0  0  0  0
  -31.9179 -148.2205  -59.9834 H   0  0  0  0  0  0  0  0  0  0  0  0
  -29.0566 -147.6666  -61.3795 H   0  0  0  0  0  0  0  0  0  0  0  0
  -30.3639 -148.5644  -59.6948 H   0  0  0  0  0  0  0  0  0  0  0  0
  -26.8636 -148.3726  -60.2010 H   0  0  0  0  0  0  0  0  0  0  0  0
  -28.7884 -148.7241  -56.1817 H   0  0  0  0  0  0  0  0  0  0  0  0
  -25.3466 -149.0818  -57.7258 H   0  0  0  0  0  0  0  0  0  0  0  0
  -25.3489 -149.5087  -56.7964 H   0  0  0  0  0  0  0  0  0  0  0  0
  -24.3048 -145.7526  -58.8942 H   0  0  0  0  0  0  0  0  0  0  0  0
  -23.9374 -148.1457  -54.3989 H   0  0  0  0  0  0  0  0  0  0  0  0
  -21.7331 -149.5022  -54.7738 H   0  0  0  0  0  0  0  0  0  0  0  0
  -22.3801 -147.8555  -52.9246 H   0  0  0  0  0  0  0  0  0  0  0  0
  -18.9534 -148.7436  -54.2779 H   0  0  0  0  0  0  0  0  0  0  0  0
  -20.2836 -148.0362  -51.5547 H   0  0  0  0  0  0  0  0  0  0  0  0
  -17.6591 -149.4277  -52.3686 H   0  0  0  0  0  0  0  0  0  0  0  0
  -17.9780 -148.2643  -49.6877 H   0  0  0  0  0  0  0  0  0  0  0  0
  -14.8885 -148.9561  -51.4394 H   0  0  0  0  0  0  0  0  0  0  0  0
  -15.8230 -147.8736  -48.8855 H   0  0  0  0  0  0  0  0  0  0  0  0
  -13.5410 -149.4337  -48.6958 H   0  0  0  0  0  0  0  0  0  0  0  0
  -13.7442 -148.4591  -46.9226 H   0  0  0  0  0  0  0  0  0  0  0  0
  -11.2790 -149.5633  -47.7760 H   0  0  0  0  0  0  0  0  0  0  0  0
  -11.3550 -146.4297  -45.4372 H   0  0  0  0  0  0  0  0  0  0  0  0
   -9.3268 -146.7827  -46.1331 H   0  0  0  0  0  0  0  0  0  0  0  0
   -9.9801 -147.6527  -45.0748 H   0  0  0  0  0  0  0  0  0  0  0  0
   -6.7635 -148.8531  -45.6928 H   0  0  0  0  0  0  0  0  0  0  0  0
   -7.7897 -148.9189  -42.5622 H   0  0  0  0  0  0  0  0  0  0  0  0
   -3.9304 -147.4389  -43.9107 H   0  0  0  0  0  0  0  0  0  0  0  0
   -5.7500 -148.6739  -41.0575 H   0  0  0  0  0  0  0  0  0  0  0  0
   -5.8295 -150.3435  -39.1366 H   0  0  0  0  0  0  0  0  0  0  0  0
   -4.8339 -149.2646  -40.6856 H   0  0  0  0  0  0  0  0  0  0  0  0
   -6.8345 -148.1503  -43.8285 H   0  0  0  0  0  0  0  0  0  0  0  0
  -10.0196 -148.6830  -45.4939 H   0  0  0  0  0  0  0  0  0  0  0  0
  -14.0526 -148.7563  -48.2646 H   0  0  0  0  0  0  0  0  0  0  0  0
  -17.7729 -148.8148  -50.7980 H   0  0  0  0  0  0  0  0  0  0  0  0
  -22.2712 -148.8176  -54.0814 H   0  0  0  0  0  0  0  0  0  0  0  0
  -26.3761 -148.6977  -57.0002 H   0  0  0  0  0  0  0  0  0  0  0  0
  -31.1965 -148.8775  -60.9146 H   0  0  0  0  0  0  0  0  0  0  0  0
  -39.0388 -148.8890  -65.8662 H   0  0  0  0  0  0  0  0  0  0  0  0
  1  2  1  0  0  0  0
  1 74  1  0  0  0  0
  1 75  1  0  0  0  0
  1 76  1  0  0  0  0
  2  3  1  0  0  0  0
  2 77  1  0  0  0  0
  2 78  1  0  0  0  0
  3  4  1  0  0  0  0
  3 73  1  0  0  0  0
  3 79  1  0  0  0  0
  4  5  2  3  0  0  0
  4 80  1  0  0  0  0
  5  6  1  0  0  0  0
  5 81  1  0  0  0  0
  6  7  2  3  0  0  0
  6 82  1  0  0  0  0
  7  8  1  0  0  0  0
  7 83  1  0  0  0  0
  8  9  2  3  0  0  0
  8 84  1  0  0  0  0
  9 10  1  0  0  0  0
  9 85  1  0  0  0  0
 10 11  2  3  0  0  0
 10 86  1  0  0  0  0
 11 12  1  0  0  0  0
 11 87  1  0  0  0  0
 12 13  2  3  0  0  0
 12 88  1  0  0  0  0
 13 14  1  0  0  0  0
 13 89  1  0  0  0  0
 14 15  2  3  0  0  0
 14 90  1  0  0  0  0
 15 16  1  0  0  0  0
 15 91  1  0  0  0  0
 16 17  2  3  0  0  0
 16 92  1  0  0  0  0
 17 18  1  0  0  0  0
 17 93  1  0  0  0  0
 18 19  2  3  0  0  0
 18 94  1  0  0  0  0
 19 20  1  0  0  0  0
 19 95  1  0  0  0  0
 20 21  2  3  0  0  0
 20 96  1  0  0  0  0
 21 22  1  0  0  0  0
 21 97  1  0  0  0  0
 22 23  2  3  0  0  0
 22 98  1  0  0  0  0
 23 24  1  0  0  0  0
 23 99  1  0  0  0  0
 24 25  2  3  0  0  0
 24100  1  0  0  0  0
 25 26  1  0  0  0  0
 25101  1  0  0  0  0
 26 27  2  3  0  0  0
 26102  1  0  0  0  0
 27 28  1  0  0  0  0
 27103  1  0  0  0  0
 28 29  2  3  0  0  0
 28104  1  0  0  0  0
 29 30  1  0  0  0  0
 29105  1  0  0  0  0
 30 31  2  3  0  0  0
 30106  1  0  0  0  0
 31 32  1  0  0  0  0
 31107  1  0  0  0  0
 32 33  2  3  0  0  0
 32108  1  0  0  0  0
 33 34  1  0  0  0  0
 33109  1  0  0  0  0
 34 35  2  3  0  0  0
 34110  1  0  0  0  0
 35 36  1  0  0  0  0
 35111  1  0  0  0  0
 36 37  2  3  0  0  0
 36112  1  0  0  0  0
 37 38  1  0  0  0  0
 37113  1  0  0  0  0
 38 39  2  3  0  0  0
 38114  1  0  0  0  0
 39 40  1  0  0  0  0
 39115  1  0  0  0  0
 40 41  2  3  0  0  0
 40116  1  0  0  0  0
 41 42  1  0  0  0  0
 41117  1  0  0  0  0
 42 43  2  3  0  0  0
 42118  1  0  0  0  0
 43 44  1  0  0  0  0
 43119  1  0  0  0  0
 44 45  2  3  0  0  0
 44120  1  0  0  0  0
 45 46  1  0  0  0  0
 45121  1  0  0  0  0
 46 47  2  3  0  0  0
 46122  1  0  0  0  0
 47 48  1  0  0  0  0
 47123  1  0  0  0  0
 48 49  2  3  0  0  0
 48124  1  0  0  0  0
 49 50  1  0  0  0  0
 49125  1  0  0  0  0
 50 51  2  3  0  0  0
 50126  1  0  0  0  0
 51 52  1  0  0  0  0
 51127  1  0  0  0  0
 52 53  2  3  0  0  0
 52128  1  0  0  0  0
 53 54  1  0  0  0  0
 53129  1  0  0  0  0
 54 55  2  3  0  0  0
 54130  1  0  0  0  0
 55 56  1  0  0  0  0
 55131  1  0  0  0  0
 56 57  2  3  0  0  0
 56132  1  0  0  0  0
 57 58  1  0  0  0  0
 57133  1  0  0  0  0
 58 59  2  3  0  0  0
 58134  1  0  0  0  0
 59 60  1  0  0  0  0
 59135  1  0  0  0  0
 60 61  2  3  0  0  0
 60136  1  0  0  0  0
 61 62  1  0  0  0  0
 61137  1  0  0  0  0
 62 63  2  3  0  0  0
 62138  1  0  0  0  0
 63 64  1  0  0  0  0
 63139  1  0  0  0  0
 64 65  2  3  0  0  0
 64140  1  0  0  0  0
 65 66  1  0  0  0  0
 65141  1  0  0  0  0
 66 67  2  3  0  0  0
 66142  1  0  0  0  0
 67 68  1  0  0  0  0
 67143  1  0  0  0  0
 68 69  2  3  0  0  0
 68144  1  0  0  0  0
 69 70  1  0  0  0  0
 69145  1  0  0  0  0
 70 71  2  3  0  0  0
 70146  1  0  0  0  0
 71 72  1  0  0  0  0
 71147  1  0  0  0  0
 72 73  2  3  0  0  0
 72148  1  0  0  0  0
 73149  1  0  0  0  0
M  END
$$$$
