
 OpenBabel04232216463D

 54 55  0  0  0  0  0  0  0  0999 V2000
    2.9664   -1.3712    1.9038 C   0  0  0  0  0  0  0  0  0  0  0  0
    2.6842   -0.2515    0.9201 C   0  0  0  0  0  0  0  0  0  0  0  0
    1.3027   -0.1312    0.4715 C   0  0  0  0  0  0  0  0  0  0  0  0
    0.7244    0.8740   -0.2323 C   0  0  0  0  0  0  0  0  0  0  0  0
   -0.7989    0.9716   -0.3966 C   0  0  0  0  0  0  0  0  0  0  0  0
   -1.7513    0.2563    0.6029 C   0  0  0  0  0  0  0  0  0  0  0  0
   -2.0394    0.9645    1.8532 N   0  0  0  0  0  0  0  0  0  0  0  0
   -0.8936    1.0096    2.7601 C   0  0  0  0  0  0  0  0  0  0  0  0
   -1.1943    1.8127    4.0368 C   0  0  0  0  0  0  0  0  0  0  0  0
    0.0847    2.4506    4.5894 C   0  0  0  0  0  0  0  0  0  0  0  0
    1.4119    2.0477   -0.7860 C   0  0  0  0  0  0  0  0  0  0  0  0
    2.5269    2.1818   -1.5337 C   0  0  0  0  0  0  0  0  0  0  0  0
    3.0079    3.4410   -1.9296 N   0  0  0  0  0  0  0  0  0  0  0  0
    3.8183    4.2330   -0.9753 C   0  0  0  0  0  0  0  0  0  0  0  0
    2.9651    4.8660    0.1266 C   0  0  0  0  0  0  0  0  0  0  0  0
    3.4696    4.5284    1.5288 C   0  0  0  0  0  0  0  0  0  0  0  0
    2.4247    4.8845    2.6007 C   0  0  0  0  0  0  0  0  0  0  0  0
    2.0346    3.6803    3.4749 C   0  0  0  0  0  0  0  0  0  0  0  0
    0.5277    3.6624    3.7585 C   0  0  0  0  0  0  0  0  0  0  0  0
    3.2650    1.0396   -2.0345 C   0  0  0  0  0  0  0  0  0  0  0  0
    3.7501    0.0647   -1.2668 C   0  0  0  0  0  0  0  0  0  0  0  0
    3.7507    0.0690    0.1694 C   0  0  0  0  0  0  0  0  0  0  0  0
    2.0620   -1.7983    2.3414 H   0  0  0  0  0  0  0  0  0  0  0  0
    3.6285   -1.0491    2.7120 H   0  0  0  0  0  0  0  0  0  0  0  0
    3.4655   -2.1970    1.3669 H   0  0  0  0  0  0  0  0  0  0  0  0
    0.6594   -0.9076    0.8709 H   0  0  0  0  0  0  0  0  0  0  0  0
   -1.0264    0.5980   -1.4016 H   0  0  0  0  0  0  0  0  0  0  0  0
   -1.1038    2.0285   -0.4030 H   0  0  0  0  0  0  0  0  0  0  0  0
   -1.4466   -0.7802    0.8000 H   0  0  0  0  0  0  0  0  0  0  0  0
   -2.7169    0.1731    0.0864 H   0  0  0  0  0  0  0  0  0  0  0  0
   -2.8221    0.5137    2.3293 H   0  0  0  0  0  0  0  0  0  0  0  0
   -0.0467    1.4547    2.2605 H   0  0  0  0  0  0  0  0  0  0  0  0
   -0.6099   -0.0122    3.0632 H   0  0  0  0  0  0  0  0  0  0  0  0
   -1.6553    1.1647    4.7767 H   0  0  0  0  0  0  0  0  0  0  0  0
   -1.9353    2.6224    3.8268 H   0  0  0  0  0  0  0  0  0  0  0  0
    0.8764    1.6851    4.6366 H   0  0  0  0  0  0  0  0  0  0  0  0
   -0.0904    2.7760    5.6227 H   0  0  0  0  0  0  0  0  0  0  0  0
    0.8680    2.9703   -0.5923 H   0  0  0  0  0  0  0  0  0  0  0  0
    3.5594    3.3373   -2.7822 H   0  0  0  0  0  0  0  0  0  0  0  0
    4.3141    5.0324   -1.5421 H   0  0  0  0  0  0  0  0  0  0  0  0
    4.6203    3.6018   -0.5685 H   0  0  0  0  0  0  0  0  0  0  0  0
    1.9196    4.5689    0.0373 H   0  0  0  0  0  0  0  0  0  0  0  0
    2.9579    5.9564   -0.0074 H   0  0  0  0  0  0  0  0  0  0  0  0
    4.3870    5.1024    1.7238 H   0  0  0  0  0  0  0  0  0  0  0  0
    3.7444    3.4737    1.5897 H   0  0  0  0  0  0  0  0  0  0  0  0
    1.5333    5.3146    2.1296 H   0  0  0  0  0  0  0  0  0  0  0  0
    2.8250    5.6720    3.2506 H   0  0  0  0  0  0  0  0  0  0  0  0
    2.5912    3.7189    4.4181 H   0  0  0  0  0  0  0  0  0  0  0  0
    2.3017    2.7360    2.9820 H   0  0  0  0  0  0  0  0  0  0  0  0
   -0.0005    3.6824    2.7982 H   0  0  0  0  0  0  0  0  0  0  0  0
    0.2414    4.5827    4.2846 H   0  0  0  0  0  0  0  0  0  0  0  0
    3.4302    0.9809   -3.1062 H   0  0  0  0  0  0  0  0  0  0  0  0
    4.1931   -0.8247   -1.7166 H   0  0  0  0  0  0  0  0  0  0  0  0
    4.3817    0.8496    0.6045 H   0  0  0  0  0  0  0  0  0  0  0  0
  1  2  1  0  0  0  0
  1 23  1  0  0  0  0
  1 24  1  0  0  0  0
  1 25  1  0  0  0  0
  2  3  1  0  0  0  0
  2 22  2  0  0  0  0
  3  4  2  0  0  0  0
  3 26  1  0  0  0  0
  4  5  1  0  0  0  0
  4 11  1  0  0  0  0
  5  6  1  0  0  0  0
  5 27  1  0  0  0  0
  5 28  1  0  0  0  0
  6  7  1  0  0  0  0
  6 29  1  0  0  0  0
  6 30  1  0  0  0  0
  7  8  1  0  0  0  0
  7 31  1  0  0  0  0
  8  9  1  0  0  0  0
  8 32  1  0  0  0  0
  8 33  1  0  0  0  0
  9 10  1  0  0  0  0
  9 34  1  0  0  0  0
  9 35  1  0  0  0  0
 10 19  1  0  0  0  0
 10 36  1  0  0  0  0
 10 37  1  0  0  0  0
 11 12  2  0  0  0  0
 11 38  1  0  0  0  0
 12 13  1  0  0  0  0
 12 20  1  0  0  0  0
 13 14  1  0  0  0  0
 13 39  1  0  0  0  0
 14 15  1  0  0  0  0
 14 40  1  0  0  0  0
 14 41  1  0  0  0  0
 15 16  1  0  0  0  0
 15 42  1  0  0  0  0
 15 43  1  0  0  0  0
 16 17  1  0  0  0  0
 16 44  1  0  0  0  0
 16 45  1  0  0  0  0
 17 18  1  0  0  0  0
 17 46  1  0  0  0  0
 17 47  1  0  0  0  0
 18 19  1  0  0  0  0
 18 48  1  0  0  0  0
 18 49  1  0  0  0  0
 19 50  1  0  0  0  0
 19 51  1  0  0  0  0
 20 21  2  0  0  0  0
 20 52  1  0  0  0  0
 21 22  1  0  0  0  0
 21 53  1  0  0  0  0
 22 54  1  0  0  0  0
M  END
$$$$
