
 OpenBabel04232216443D

 64 65  0  0  1  0  0  0  0  0999 V2000
    7.9900   -0.0918   -2.5337 C   0  0  0  0  0  0  0  0  0  0  0  0
    8.1418   -1.6026   -2.7010 C   0  0  0  0  0  0  0  0  0  0  0  0
    6.3948   -1.9789   -2.3865 C   0  0  0  0  0  0  0  0  0  0  0  0
    4.8296   -0.9837   -2.5583 C   0  0  0  0  0  0  0  0  0  0  0  0
    3.0018   -1.3493   -2.6538 C   0  0  0  0  0  0  0  0  0  0  0  0
    1.3971   -1.1910   -1.8297 C   0  0  3  0  0  0  0  0  0  0  0  0
    0.7067   -2.5081   -1.2312 C   0  0  0  0  0  0  0  0  0  0  0  0
    0.3203   -3.6193   -2.1971 C   0  0  0  0  0  0  0  0  0  0  0  0
    0.8340   -0.0347   -0.8545 C   0  0  0  0  0  0  0  0  0  0  0  0
    0.5061    1.3740   -1.3866 C   0  0  0  0  0  0  0  0  0  0  0  0
   -0.0763    2.3073   -0.2993 C   0  0  0  0  0  0  0  0  0  0  0  0
    6.2224   -2.4131   -1.1152 C   0  0  0  0  0  0  0  0  0  0  0  0
    5.6341   -3.7328   -0.9449 C   0  0  0  0  0  0  0  0  0  0  0  0
    4.5278   -4.1685   -1.9021 C   0  0  0  0  0  0  0  0  0  0  0  0
    6.5321   -4.5670   -0.3715 C   0  0  0  0  0  0  0  0  0  0  0  0
    6.9675   -5.5802   -1.2862 C   0  0  0  0  0  0  0  0  0  0  0  0
    8.2392   -5.9419   -1.4820 C   0  0  0  0  0  0  0  0  0  0  0  0
    8.3613   -6.1045   -2.9590 C   0  0  0  0  0  0  0  0  0  0  0  0
    8.3967   -7.2107   -3.4792 O   0  0  0  0  0  0  0  0  0  0  0  0
    8.3288   -4.8107   -3.7467 C   0  0  0  0  0  0  0  0  0  0  0  0
    9.6309   -4.5292   -4.3323 C   0  0  0  0  0  0  0  0  0  0  0  0
   10.1822   -3.6843   -3.2014 C   0  0  0  0  0  0  0  0  0  0  0  0
   11.1996   -4.3421   -2.5640 C   0  0  0  0  0  0  0  0  0  0  0  0
   12.6058   -4.0826   -2.8669 C   0  0  0  0  0  0  0  0  0  0  0  0
   13.0367   -2.8418   -3.1068 C   0  0  0  0  0  0  0  0  0  0  0  0
   12.2370   -1.6119   -3.0483 C   0  0  0  0  0  0  0  0  0  0  0  0
   10.8844   -1.2857   -2.9769 C   0  0  0  0  0  0  0  0  0  0  0  0
    9.5716   -2.1959   -2.9262 C   0  0  0  0  0  0  0  0  0  0  0  0
    8.8672    0.4223   -2.1580 H   0  0  0  0  0  0  0  0  0  0  0  0
    7.2158    0.1336   -1.7868 H   0  0  0  0  0  0  0  0  0  0  0  0
    7.6451    0.3447   -3.4765 H   0  0  0  0  0  0  0  0  0  0  0  0
    4.9910   -0.4404   -3.4983 H   0  0  0  0  0  0  0  0  0  0  0  0
    4.8532   -0.2516   -1.7426 H   0  0  0  0  0  0  0  0  0  0  0  0
    2.8974   -2.2654   -3.2499 H   0  0  0  0  0  0  0  0  0  0  0  0
    2.7767   -0.5406   -3.3740 H   0  0  0  0  0  0  0  0  0  0  0  0
    0.7572   -1.0215   -2.7194 H   0  0  0  0  0  0  0  0  0  0  0  0
   -0.2786   -2.2469   -0.7958 H   0  0  0  0  0  0  0  0  0  0  0  0
    1.2765   -2.8929   -0.3821 H   0  0  0  0  0  0  0  0  0  0  0  0
   -0.4097   -3.2710   -2.9389 H   0  0  0  0  0  0  0  0  0  0  0  0
   -0.1788   -4.4324   -1.6466 H   0  0  0  0  0  0  0  0  0  0  0  0
    1.1892   -4.0319   -2.7017 H   0  0  0  0  0  0  0  0  0  0  0  0
    1.3991   -0.0039    0.0795 H   0  0  0  0  0  0  0  0  0  0  0  0
   -0.1804   -0.3475   -0.5257 H   0  0  0  0  0  0  0  0  0  0  0  0
   -0.2533    1.3141   -2.1796 H   0  0  0  0  0  0  0  0  0  0  0  0
    1.4038    1.8260   -1.8035 H   0  0  0  0  0  0  0  0  0  0  0  0
   -1.0930    2.0197    0.0032 H   0  0  0  0  0  0  0  0  0  0  0  0
   -0.1423    3.3373   -0.6725 H   0  0  0  0  0  0  0  0  0  0  0  0
    0.5449    2.3215    0.6019 H   0  0  0  0  0  0  0  0  0  0  0  0
    5.6133   -1.7801   -0.4571 H   0  0  0  0  0  0  0  0  0  0  0  0
    3.5633   -3.7603   -1.6004 H   0  0  0  0  0  0  0  0  0  0  0  0
    4.3869   -5.2549   -1.9143 H   0  0  0  0  0  0  0  0  0  0  0  0
    4.7344   -3.8738   -2.9376 H   0  0  0  0  0  0  0  0  0  0  0  0
    7.2936   -4.1336    0.2899 H   0  0  0  0  0  0  0  0  0  0  0  0
    6.3320   -5.6873   -2.1664 H   0  0  0  0  0  0  0  0  0  0  0  0
    9.0686   -5.6273   -0.8588 H   0  0  0  0  0  0  0  0  0  0  0  0
    8.1060   -4.0769   -2.9746 H   0  0  0  0  0  0  0  0  0  0  0  0
    7.5126   -4.6654   -4.4479 H   0  0  0  0  0  0  0  0  0  0  0  0
    9.6925   -4.0301   -5.3096 H   0  0  0  0  0  0  0  0  0  0  0  0
   10.2412   -5.4673   -4.5012 H   0  0  0  0  0  0  0  0  0  0  0  0
   11.1958   -5.4321   -2.6115 H   0  0  0  0  0  0  0  0  0  0  0  0
   13.2386   -4.8973   -2.9594 H   0  0  0  0  0  0  0  0  0  0  0  0
   14.1083   -2.7575   -3.3537 H   0  0  0  0  0  0  0  0  0  0  0  0
   12.9728   -0.7920   -3.0667 H   0  0  0  0  0  0  0  0  0  0  0  0
   10.6748   -0.2244   -2.9284 H   0  0  0  0  0  0  0  0  0  0  0  0
  1  2  1  0  0  0  0
  1 29  1  0  0  0  0
  1 30  1  0  0  0  0
  1 31  1  0  0  0  0
  2  3  1  0  0  0  0
  2 28  2  3  0  0  0
  3  4  1  0  0  0  0
  3 12  2  3  0  0  0
  4  5  1  0  0  0  0
  4 32  1  0  0  0  0
  4 33  1  0  0  0  0
  5  6  1  0  0  0  0
  5 34  1  0  0  0  0
  5 35  1  0  0  0  0
  6  7  1  0  0  0  0
  6  9  1  0  0  0  0
  6 36  1  0  0  0  0
  7  8  1  0  0  0  0
  7 37  1  0  0  0  0
  7 38  1  0  0  0  0
  8 39  1  0  0  0  0
  8 40  1  0  0  0  0
  8 41  1  0  0  0  0
  9 10  1  0  0  0  0
  9 42  1  0  0  0  0
  9 43  1  0  0  0  0
 10 11  1  0  0  0  0
 10 44  1  0  0  0  0
 10 45  1  0  0  0  0
 11 46  1  0  0  0  0
 11 47  1  0  0  0  0
 11 48  1  0  0  0  0
 12 13  1  0  0  0  0
 12 49  1  0  0  0  0
 13 14  1  0  0  0  0
 13 15  2  3  0  0  0
 14 50  1  0  0  0  0
 14 51  1  0  0  0  0
 14 52  1  0  0  0  0
 15 16  1  0  0  0  0
 15 53  1  0  0  0  0
 16 17  2  3  0  0  0
 16 54  1  0  0  0  0
 17 18  1  0  0  0  0
 17 55  1  0  0  0  0
 18 19  2  0  0  0  0
 18 20  1  0  0  0  0
 20 21  1  0  0  0  0
 20 56  1  0  0  0  0
 20 57  1  0  0  0  0
 21 22  1  0  0  0  0
 21 58  1  0  0  0  0
 21 59  1  0  0  0  0
 22 23  2  0  0  0  0
 22 28  1  0  0  0  0
 23 24  1  0  0  0  0
 23 60  1  0  0  0  0
 24 25  2  0  0  0  0
 24 61  1  0  0  0  0
 25 26  1  0  0  0  0
 25 62  1  0  0  0  0
 26 27  2  0  0  0  0
 26 63  1  0  0  0  0
 27 28  1  0  0  0  0
 27 64  1  0  0  0  0
M  END
$$$$
