
 OpenBabel04232216523D

 45 45  0  0  0  0  0  0  0  0999 V2000
    0.9535   -0.0166   -0.1384 C   0  0  0  0  0  0  0  0  0  0  0  0
    2.4719   -0.0066   -0.1222 C   0  0  0  0  0  0  0  0  0  0  0  0
    3.0036    0.7362    1.1001 C   0  0  0  0  0  0  0  0  0  0  0  0
    4.5290    0.7466    1.1136 C   0  0  0  0  0  0  0  0  0  0  0  0
    5.0542    1.4885    2.3383 C   0  0  0  0  0  0  0  0  0  0  0  0
    6.5784    1.4974    2.3526 C   0  0  0  0  0  0  0  0  0  0  0  0
    7.1005    2.2379    3.5782 C   0  0  0  0  0  0  0  0  0  0  0  0
    8.6243    2.2469    3.5907 C   0  0  0  0  0  0  0  0  0  0  0  0
    9.1478    2.9856    4.8162 C   0  0  0  0  0  0  0  0  0  0  0  0
   10.6721    2.9945    4.8267 C   0  0  0  0  0  0  0  0  0  0  0  0
   11.1991    3.7334    6.0502 C   0  0  0  0  0  0  0  0  0  0  0  0
   12.7254    3.7435    6.0680 C   0  0  0  0  0  0  0  0  0  0  0  0
   13.2341    4.4710    7.2741 C   0  0  0  0  0  0  0  0  0  0  0  0
   14.7211    4.6058    7.4916 C   0  0  0  0  0  0  0  0  0  0  0  0
   13.9032    5.8112    7.1185 C   0  0  0  0  0  0  0  0  0  0  0  0
    0.5863   -0.5525   -1.0190 H   0  0  0  0  0  0  0  0  0  0  0  0
    0.5563    1.0030   -0.1694 H   0  0  0  0  0  0  0  0  0  0  0  0
    0.5566   -0.5131    0.7529 H   0  0  0  0  0  0  0  0  0  0  0  0
    2.8416    0.4698   -1.0377 H   0  0  0  0  0  0  0  0  0  0  0  0
    2.8415   -1.0388   -0.1210 H   0  0  0  0  0  0  0  0  0  0  0  0
    2.6311    0.2581    2.0143 H   0  0  0  0  0  0  0  0  0  0  0  0
    2.6287    1.7670    1.0988 H   0  0  0  0  0  0  0  0  0  0  0  0
    4.9048    1.2273    0.2021 H   0  0  0  0  0  0  0  0  0  0  0  0
    4.9069   -0.2831    1.1162 H   0  0  0  0  0  0  0  0  0  0  0  0
    4.6793    1.0093    3.2510 H   0  0  0  0  0  0  0  0  0  0  0  0
    4.6791    2.5193    2.3364 H   0  0  0  0  0  0  0  0  0  0  0  0
    6.9547    1.9787    1.4417 H   0  0  0  0  0  0  0  0  0  0  0  0
    6.9550    0.4674    2.3542 H   0  0  0  0  0  0  0  0  0  0  0  0
    6.7259    1.7561    4.4898 H   0  0  0  0  0  0  0  0  0  0  0  0
    6.7240    3.2676    3.5777 H   0  0  0  0  0  0  0  0  0  0  0  0
    8.9985    2.7299    2.6795 H   0  0  0  0  0  0  0  0  0  0  0  0
    9.0010    1.2171    3.5896 H   0  0  0  0  0  0  0  0  0  0  0  0
    8.7732    2.5034    5.7275 H   0  0  0  0  0  0  0  0  0  0  0  0
    8.7710    4.0156    4.8167 H   0  0  0  0  0  0  0  0  0  0  0  0
   11.0445    3.4775    3.9148 H   0  0  0  0  0  0  0  0  0  0  0  0
   11.0481    1.9643    4.8247 H   0  0  0  0  0  0  0  0  0  0  0  0
   10.8215    3.2542    6.9627 H   0  0  0  0  0  0  0  0  0  0  0  0
   10.8214    4.7632    6.0561 H   0  0  0  0  0  0  0  0  0  0  0  0
   13.1012    4.2064    5.1469 H   0  0  0  0  0  0  0  0  0  0  0  0
   13.1010    2.7130    6.0853 H   0  0  0  0  0  0  0  0  0  0  0  0
   12.6243    4.3055    8.1534 H   0  0  0  0  0  0  0  0  0  0  0  0
   15.3930    4.1974    6.7489 H   0  0  0  0  0  0  0  0  0  0  0  0
   15.0861    4.5334    8.5097 H   0  0  0  0  0  0  0  0  0  0  0  0
   14.0256    6.2208    6.1234 H   0  0  0  0  0  0  0  0  0  0  0  0
   13.7133    6.5578    7.8823 H   0  0  0  0  0  0  0  0  0  0  0  0
  1  2  1  0  0  0  0
  1 16  1  0  0  0  0
  1 17  1  0  0  0  0
  1 18  1  0  0  0  0
  2  3  1  0  0  0  0
  2 19  1  0  0  0  0
  2 20  1  0  0  0  0
  3  4  1  0  0  0  0
  3 21  1  0  0  0  0
  3 22  1  0  0  0  0
  4  5  1  0  0  0  0
  4 23  1  0  0  0  0
  4 24  1  0  0  0  0
  5  6  1  0  0  0  0
  5 25  1  0  0  0  0
  5 26  1  0  0  0  0
  6  7  1  0  0  0  0
  6 27  1  0  0  0  0
  6 28  1  0  0  0  0
  7  8  1  0  0  0  0
  7 29  1  0  0  0  0
  7 30  1  0  0  0  0
  8  9  1  0  0  0  0
  8 31  1  0  0  0  0
  8 32  1  0  0  0  0
  9 10  1  0  0  0  0
  9 33  1  0  0  0  0
  9 34  1  0  0  0  0
 10 11  1  0  0  0  0
 10 35  1  0  0  0  0
 10 36  1  0  0  0  0
 11 12  1  0  0  0  0
 11 37  1  0  0  0  0
 11 38  1  0  0  0  0
 12 13  1  0  0  0  0
 12 39  1  0  0  0  0
 12 40  1  0  0  0  0
 13 14  1  0  0  0  0
 13 15  1  0  0  0  0
 13 41  1  0  0  0  0
 14 15  1  0  0  0  0
 14 42  1  0  0  0  0
 14 43  1  0  0  0  0
 15 44  1  0  0  0  0
 15 45  1  0  0  0  0
M  END
$$$$
