
 OpenBabel04232216463D

 65 66  0  0  1  0  0  0  0  0999 V2000
    6.1875    4.3034   -0.1543 C   0  0  0  0  0  0  0  0  0  0  0  0
    7.3527    5.1919   -0.6697 C   0  0  0  0  0  0  0  0  0  0  0  0
    7.2881    5.6456   -2.1575 C   0  0  0  0  0  0  0  0  0  0  0  0
    7.8943    4.8600   -3.1133 C   0  0  0  0  0  0  0  0  0  0  0  0
    9.3495    5.5793   -3.8017 C   0  0  3  0  0  0  0  0  0  0  0  0
    9.6222    6.7045   -5.0055 C   0  0  0  0  0  0  0  0  0  0  0  0
   11.1339    7.0977   -5.4370 C   0  0  0  0  0  0  0  0  0  0  0  0
   11.3038    8.6202   -5.6244 C   0  0  0  0  0  0  0  0  0  0  0  0
   12.6580    9.1910   -6.1223 C   0  0  0  0  0  0  0  0  0  0  0  0
   12.4789   10.7213   -6.1641 C   0  0  0  0  0  0  0  0  0  0  0  0
   13.6303   11.5633   -6.7120 C   0  0  0  0  0  0  0  0  0  0  0  0
   13.1929   13.0389   -6.7138 C   0  0  0  0  0  0  0  0  0  0  0  0
   14.2745   13.9616   -7.2637 C   0  0  0  0  0  0  0  0  0  0  0  0
    7.2950    3.4031   -3.0656 C   0  0  0  0  0  0  0  0  0  0  0  0
    5.7955    3.3072   -3.5068 C   0  0  0  0  0  0  0  0  0  0  0  0
    7.7636    2.3927   -2.2592 C   0  0  0  0  0  0  0  0  0  0  0  0
    7.1617    1.0371   -1.9069 C   0  0  0  0  0  0  0  0  0  0  0  0
    8.9582    2.5519   -1.3808 C   0  0  0  0  0  0  0  0  0  0  0  0
   10.0509    1.7838   -1.5943 C   0  0  0  0  0  0  0  0  0  0  0  0
   10.6751    2.2738   -2.7948 C   0  0  0  0  0  0  0  0  0  0  0  0
   11.8283    2.2556   -3.4473 C   0  0  0  0  0  0  0  0  0  0  0  0
   11.8485    3.2986   -4.4826 C   0  0  0  0  0  0  0  0  0  0  0  0
   11.8390    4.5856   -4.0277 C   0  0  0  0  0  0  0  0  0  0  0  0
   10.7262    5.2444   -3.1832 C   0  0  0  0  0  0  0  0  0  0  0  0
   11.0973    5.8213   -2.0159 C   0  0  0  0  0  0  0  0  0  0  0  0
   12.3519    5.8369   -1.5957 F   0  0  0  0  0  0  0  0  0  0  0  0
   10.1374    6.4358   -1.0934 C   0  0  0  0  0  0  0  0  0  0  0  0
    9.6002    5.6292   -0.1626 C   0  0  0  0  0  0  0  0  0  0  0  0
    8.3029    5.4019    0.2007 N   0  0  0  0  0  0  0  0  0  0  0  0
    5.2118    4.6750   -0.4386 H   0  0  0  0  0  0  0  0  0  0  0  0
    6.2479    4.1741    0.9302 H   0  0  0  0  0  0  0  0  0  0  0  0
    6.2668    3.2752   -0.5527 H   0  0  0  0  0  0  0  0  0  0  0  0
    6.2006    5.7514   -2.2646 H   0  0  0  0  0  0  0  0  0  0  0  0
    9.0998    6.4527   -3.1780 H   0  0  0  0  0  0  0  0  0  0  0  0
    9.0219    6.5183   -5.9007 H   0  0  0  0  0  0  0  0  0  0  0  0
    9.2376    7.6596   -4.6044 H   0  0  0  0  0  0  0  0  0  0  0  0
   11.4107    6.5674   -6.3574 H   0  0  0  0  0  0  0  0  0  0  0  0
   11.8859    6.8567   -4.6879 H   0  0  0  0  0  0  0  0  0  0  0  0
   11.1260    9.0777   -4.6406 H   0  0  0  0  0  0  0  0  0  0  0  0
   10.5183    8.9703   -6.2990 H   0  0  0  0  0  0  0  0  0  0  0  0
   12.9100    8.8091   -7.1191 H   0  0  0  0  0  0  0  0  0  0  0  0
   13.4815    8.9195   -5.4490 H   0  0  0  0  0  0  0  0  0  0  0  0
   12.2582   11.0739   -5.1493 H   0  0  0  0  0  0  0  0  0  0  0  0
   11.5927   10.9414   -6.7720 H   0  0  0  0  0  0  0  0  0  0  0  0
   13.8810   11.2498   -7.7325 H   0  0  0  0  0  0  0  0  0  0  0  0
   14.5252   11.4405   -6.0965 H   0  0  0  0  0  0  0  0  0  0  0  0
   12.9364   13.3640   -5.6943 H   0  0  0  0  0  0  0  0  0  0  0  0
   12.2946   13.1648   -7.3174 H   0  0  0  0  0  0  0  0  0  0  0  0
   15.1846   13.9052   -6.6633 H   0  0  0  0  0  0  0  0  0  0  0  0
   13.9232   14.9977   -7.2521 H   0  0  0  0  0  0  0  0  0  0  0  0
   14.5231   13.7028   -8.3002 H   0  0  0  0  0  0  0  0  0  0  0  0
    5.2676    2.4556   -3.0606 H   0  0  0  0  0  0  0  0  0  0  0  0
    5.6490    3.2415   -4.5883 H   0  0  0  0  0  0  0  0  0  0  0  0
    5.2003    4.1608   -3.1503 H   0  0  0  0  0  0  0  0  0  0  0  0
    6.1103    0.8892   -2.1605 H   0  0  0  0  0  0  0  0  0  0  0  0
    7.2210    0.8877   -0.8179 H   0  0  0  0  0  0  0  0  0  0  0  0
    7.7379    0.2248   -2.3680 H   0  0  0  0  0  0  0  0  0  0  0  0
    9.1717    3.6096   -1.3904 H   0  0  0  0  0  0  0  0  0  0  0  0
   10.0198    0.7126   -1.5030 H   0  0  0  0  0  0  0  0  0  0  0  0
    9.9831    2.9588   -3.2753 H   0  0  0  0  0  0  0  0  0  0  0  0
   12.7148    1.6684   -3.1781 H   0  0  0  0  0  0  0  0  0  0  0  0
   11.0407    3.0348   -5.1852 H   0  0  0  0  0  0  0  0  0  0  0  0
   12.8070    4.8781   -3.6068 H   0  0  0  0  0  0  0  0  0  0  0  0
   10.0387    7.5129   -1.0434 H   0  0  0  0  0  0  0  0  0  0  0  0
   10.2225    4.7554    0.0895 H   0  0  0  0  0  0  0  0  0  0  0  0
  1  2  1  0  0  0  0
  1 30  1  0  0  0  0
  1 31  1  0  0  0  0
  1 32  1  0  0  0  0
  2  3  1  0  0  0  0
  2 29  2  3  0  0  0
  3  4  2  3  0  0  0
  3 33  1  0  0  0  0
  4  5  1  0  0  0  0
  4 14  1  0  0  0  0
  5  6  1  0  0  0  0
  5 24  1  0  0  0  0
  5 34  1  0  0  0  0
  6  7  1  0  0  0  0
  6 35  1  0  0  0  0
  6 36  1  0  0  0  0
  7  8  1  0  0  0  0
  7 37  1  0  0  0  0
  7 38  1  0  0  0  0
  8  9  1  0  0  0  0
  8 39  1  0  0  0  0
  8 40  1  0  0  0  0
  9 10  1  0  0  0  0
  9 41  1  0  0  0  0
  9 42  1  0  0  0  0
 10 11  1  0  0  0  0
 10 43  1  0  0  0  0
 10 44  1  0  0  0  0
 11 12  1  0  0  0  0
 11 45  1  0  0  0  0
 11 46  1  0  0  0  0
 12 13  1  0  0  0  0
 12 47  1  0  0  0  0
 12 48  1  0  0  0  0
 13 49  1  0  0  0  0
 13 50  1  0  0  0  0
 13 51  1  0  0  0  0
 14 15  1  0  0  0  0
 14 16  2  3  0  0  0
 15 52  1  0  0  0  0
 15 53  1  0  0  0  0
 15 54  1  0  0  0  0
 16 17  1  0  0  0  0
 16 18  1  0  0  0  0
 17 55  1  0  0  0  0
 17 56  1  0  0  0  0
 17 57  1  0  0  0  0
 18 19  2  3  0  0  0
 18 58  1  0  0  0  0
 19 20  1  0  0  0  0
 19 59  1  0  0  0  0
 20 21  2  3  0  0  0
 20 60  1  0  0  0  0
 21 22  1  0  0  0  0
 21 61  1  0  0  0  0
 22 23  2  3  0  0  0
 22 62  1  0  0  0  0
 23 24  1  0  0  0  0
 23 63  1  0  0  0  0
 24 25  2  3  0  0  0
 25 26  1  0  0  0  0
 25 27  1  0  0  0  0
 27 28  2  3  0  0  0
 27 64  1  0  0  0  0
 28 29  1  0  0  0  0
 28 65  1  0  0  0  0
M  END
$$$$
