
 OpenBabel04232216403D

234233  0  0  0  0  0  0  0  0999 V2000
    3.5258    2.4529    2.3787 C   0  0  0  0  0  0  0  0  0  0  0  0
    4.3865    1.4247    2.1554 C   0  0  0  0  0  0  0  0  0  0  0  0
    5.1851    0.7997    3.2531 C   0  0  0  0  0  0  0  0  0  0  0  0
    6.6209    0.9225    2.9835 N   0  0  0  0  0  0  0  0  0  0  0  0
    7.3377    0.3270    4.0487 N   0  0  0  0  0  0  0  0  0  0  0  0
    8.7313    0.4418    3.8165 N   0  0  0  0  0  0  0  0  0  0  0  0
    9.4541   -0.1800    4.8461 N   0  0  0  0  0  0  0  0  0  0  0  0
    9.1049   -1.5564    4.9212 N   0  0  0  0  0  0  0  0  0  0  0  0
    9.4420   -2.2174    3.6643 C   0  0  0  0  0  0  0  0  0  0  0  0
   10.8526   -2.0599    3.4272 N   0  0  0  0  0  0  0  0  0  0  0  0
   11.6056   -2.7039    4.5068 C   0  0  0  0  0  0  0  0  0  0  0  0
   13.1020   -2.5658    4.2819 C   0  0  0  0  0  0  0  0  0  0  0  0
   13.8711   -3.2327    5.4163 C   0  0  0  0  0  0  0  0  0  0  0  0
   15.3665   -3.0932    5.1895 C   0  0  0  0  0  0  0  0  0  0  0  0
   16.1316   -3.7577    6.3193 C   0  0  0  0  0  0  0  0  0  0  0  0
   17.6240   -3.6178    6.0877 C   0  0  0  0  0  0  0  0  0  0  0  0
   18.3875   -4.2836    7.2159 C   0  0  0  0  0  0  0  0  0  0  0  0
   19.8791   -4.1417    6.9847 C   0  0  0  0  0  0  0  0  0  0  0  0
   20.6421   -4.8092    8.1118 C   0  0  0  0  0  0  0  0  0  0  0  0
   22.1336   -4.6689    7.8796 C   0  0  0  0  0  0  0  0  0  0  0  0
   22.8965   -5.3347    9.0077 C   0  0  0  0  0  0  0  0  0  0  0  0
   24.3880   -5.1961    8.7744 C   0  0  0  0  0  0  0  0  0  0  0  0
   25.1510   -5.8602    9.9035 C   0  0  0  0  0  0  0  0  0  0  0  0
   26.6424   -5.7234    9.6693 C   0  0  0  0  0  0  0  0  0  0  0  0
   27.4054   -6.3875   10.7984 C   0  0  0  0  0  0  0  0  0  0  0  0
   28.8968   -6.2489   10.5651 C   0  0  0  0  0  0  0  0  0  0  0  0
   29.6598   -6.9130   11.6942 C   0  0  0  0  0  0  0  0  0  0  0  0
   31.1512   -6.7744   11.4609 C   0  0  0  0  0  0  0  0  0  0  0  0
   31.9142   -7.4385   12.5900 C   0  0  0  0  0  0  0  0  0  0  0  0
   33.4056   -7.2999   12.3568 C   0  0  0  0  0  0  0  0  0  0  0  0
   34.1686   -7.9640   13.4859 C   0  0  0  0  0  0  0  0  0  0  0  0
   35.6600   -7.8254   13.2526 C   0  0  0  0  0  0  0  0  0  0  0  0
   36.4230   -8.4878   14.3828 C   0  0  0  0  0  0  0  0  0  0  0  0
   37.9144   -8.3492   14.1495 C   0  0  0  0  0  0  0  0  0  0  0  0
   38.6774   -9.0115   15.2796 C   0  0  0  0  0  0  0  0  0  0  0  0
   40.1688   -8.8730   15.0464 C   0  0  0  0  0  0  0  0  0  0  0  0
   40.9318   -9.5336   16.1775 C   0  0  0  0  0  0  0  0  0  0  0  0
   42.4232   -9.3933   15.9453 C   0  0  0  0  0  0  0  0  0  0  0  0
   43.1862  -10.0556   17.0754 C   0  0  0  0  0  0  0  0  0  0  0  0
   44.6776   -9.9170   16.8421 C   0  0  0  0  0  0  0  0  0  0  0  0
   45.4406  -10.5776   17.9733 C   0  0  0  0  0  0  0  0  0  0  0  0
   46.9320  -10.4408   17.7390 C   0  0  0  0  0  0  0  0  0  0  0  0
   47.6950  -11.1014   18.8701 C   0  0  0  0  0  0  0  0  0  0  0  0
   49.1865  -10.9646   18.6359 C   0  0  0  0  0  0  0  0  0  0  0  0
   49.9494  -11.6252   19.7670 C   0  0  0  0  0  0  0  0  0  0  0  0
   51.4409  -11.4883   19.5327 C   0  0  0  0  0  0  0  0  0  0  0  0
   52.2038  -12.1489   20.6639 C   0  0  0  0  0  0  0  0  0  0  0  0
   53.6953  -12.0104   20.4306 C   0  0  0  0  0  0  0  0  0  0  0  0
   54.4582  -12.6727   21.5607 C   0  0  0  0  0  0  0  0  0  0  0  0
   55.9497  -12.5324   21.3285 C   0  0  0  0  0  0  0  0  0  0  0  0
   56.7126  -13.1947   22.4586 C   0  0  0  0  0  0  0  0  0  0  0  0
   58.2041  -13.0562   22.2253 C   0  0  0  0  0  0  0  0  0  0  0  0
   58.9671  -13.7202   23.3545 C   0  0  0  0  0  0  0  0  0  0  0  0
   60.4585  -13.5834   23.1202 C   0  0  0  0  0  0  0  0  0  0  0  0
   61.2215  -14.2457   24.2503 C   0  0  0  0  0  0  0  0  0  0  0  0
   62.7129  -14.1072   24.0170 C   0  0  0  0  0  0  0  0  0  0  0  0
   63.4759  -14.7712   25.1461 C   0  0  0  0  0  0  0  0  0  0  0  0
   64.9673  -14.6327   24.9129 C   0  0  0  0  0  0  0  0  0  0  0  0
   65.7303  -15.2950   26.0430 C   0  0  0  0  0  0  0  0  0  0  0  0
   67.2217  -15.1564   25.8097 C   0  0  0  0  0  0  0  0  0  0  0  0
   67.9847  -15.8188   26.9398 C   0  0  0  0  0  0  0  0  0  0  0  0
   69.4761  -15.6802   26.7066 C   0  0  0  0  0  0  0  0  0  0  0  0
   70.2391  -16.3425   27.8367 C   0  0  0  0  0  0  0  0  0  0  0  0
   71.7305  -16.2040   27.6034 C   0  0  0  0  0  0  0  0  0  0  0  0
   72.4935  -16.8663   28.7336 C   0  0  0  0  0  0  0  0  0  0  0  0
   73.9850  -16.7277   28.5003 C   0  0  0  0  0  0  0  0  0  0  0  0
   74.7479  -17.3901   29.6304 C   0  0  0  0  0  0  0  0  0  0  0  0
   76.2394  -17.2515   29.3972 C   0  0  0  0  0  0  0  0  0  0  0  0
   77.0023  -17.9155   30.5263 C   0  0  0  0  0  0  0  0  0  0  0  0
   78.4938  -17.7770   30.2930 C   0  0  0  0  0  0  0  0  0  0  0  0
   79.2567  -18.4411   31.4221 C   0  0  0  0  0  0  0  0  0  0  0  0
   80.7482  -18.3025   31.1888 C   0  0  0  0  0  0  0  0  0  0  0  0
   81.5112  -18.9666   32.3179 C   0  0  0  0  0  0  0  0  0  0  0  0
   83.0026  -18.8280   32.0847 C   0  0  0  0  0  0  0  0  0  0  0  0
   83.7656  -19.4938   33.2128 C   0  0  0  0  0  0  0  0  0  0  0  0
   85.2573  -19.3554   32.9798 C   0  0  0  0  0  0  0  0  0  0  0  0
   86.0206  -20.0215   34.1084 C   0  0  0  0  0  0  0  0  0  0  0  0
   87.5131  -19.8821   33.8777 C   0  0  0  0  0  0  0  0  0  0  0  0
   88.2817  -20.5462   35.0068 C   0  0  0  0  0  0  0  0  0  0  0  0
   89.7700  -20.4049   34.7729 C   0  0  0  0  0  0  0  0  0  0  0  0
    2.9755    2.8813    1.5669 H   0  0  0  0  0  0  0  0  0  0  0  0
    3.3978    2.8437    3.3802 H   0  0  0  0  0  0  0  0  0  0  0  0
    4.4922    1.0593    1.1450 H   0  0  0  0  0  0  0  0  0  0  0  0
    4.9061   -0.2614    3.3162 H   0  0  0  0  0  0  0  0  0  0  0  0
    4.9323    1.2750    4.2126 H   0  0  0  0  0  0  0  0  0  0  0  0
    6.8686    1.9077    2.9623 H   0  0  0  0  0  0  0  0  0  0  0  0
    7.1409   -0.6716    4.0932 H   0  0  0  0  0  0  0  0  0  0  0  0
    9.0099    1.4150    3.7564 H   0  0  0  0  0  0  0  0  0  0  0  0
    9.2322    0.2813    5.7260 H   0  0  0  0  0  0  0  0  0  0  0  0
    8.1154   -1.6539    5.1157 H   0  0  0  0  0  0  0  0  0  0  0  0
    8.8912   -1.7446    2.8409 H   0  0  0  0  0  0  0  0  0  0  0  0
    9.1552   -3.2686    3.6902 H   0  0  0  0  0  0  0  0  0  0  0  0
   11.0535   -1.0622    3.4076 H   0  0  0  0  0  0  0  0  0  0  0  0
   11.3499   -3.7698    4.5604 H   0  0  0  0  0  0  0  0  0  0  0  0
   11.3584   -2.2531    5.4763 H   0  0  0  0  0  0  0  0  0  0  0  0
   13.3804   -1.5064    4.2321 H   0  0  0  0  0  0  0  0  0  0  0  0
   13.3832   -3.0331    3.3314 H   0  0  0  0  0  0  0  0  0  0  0  0
   13.6072   -4.2961    5.4752 H   0  0  0  0  0  0  0  0  0  0  0  0
   13.6017   -2.7722    6.3752 H   0  0  0  0  0  0  0  0  0  0  0  0
   15.6372   -2.0318    5.1350 H   0  0  0  0  0  0  0  0  0  0  0  0
   15.6427   -3.5564    4.2345 H   0  0  0  0  0  0  0  0  0  0  0  0
   15.8636   -4.8197    6.3762 H   0  0  0  0  0  0  0  0  0  0  0  0
   15.8602   -3.2944    7.2756 H   0  0  0  0  0  0  0  0  0  0  0  0
   17.8938   -2.5562    6.0329 H   0  0  0  0  0  0  0  0  0  0  0  0
   17.8969   -4.0802    5.1314 H   0  0  0  0  0  0  0  0  0  0  0  0
   18.1194   -5.3457    7.2700 H   0  0  0  0  0  0  0  0  0  0  0  0
   18.1143   -3.8223    8.1726 H   0  0  0  0  0  0  0  0  0  0  0  0
   20.1476   -3.0797    6.9322 H   0  0  0  0  0  0  0  0  0  0  0  0
   20.1523   -4.6018    6.0275 H   0  0  0  0  0  0  0  0  0  0  0  0
   20.3726   -5.8709    8.1654 H   0  0  0  0  0  0  0  0  0  0  0  0
   20.3700   -4.3481    9.0690 H   0  0  0  0  0  0  0  0  0  0  0  0
   22.4029   -3.6072    7.8247 H   0  0  0  0  0  0  0  0  0  0  0  0
   22.4059   -5.1312    6.9231 H   0  0  0  0  0  0  0  0  0  0  0  0
   22.6262   -6.3961    9.0636 H   0  0  0  0  0  0  0  0  0  0  0  0
   22.6253   -4.8714    9.9640 H   0  0  0  0  0  0  0  0  0  0  0  0
   24.6582   -4.1348    8.7171 H   0  0  0  0  0  0  0  0  0  0  0  0
   24.6594   -5.6607    7.8188 H   0  0  0  0  0  0  0  0  0  0  0  0
   24.8797   -6.9213    9.9618 H   0  0  0  0  0  0  0  0  0  0  0  0
   24.8806   -5.3947   10.8590 H   0  0  0  0  0  0  0  0  0  0  0  0
   26.9136   -4.6624    9.6110 H   0  0  0  0  0  0  0  0  0  0  0  0
   26.9128   -6.1889    8.7138 H   0  0  0  0  0  0  0  0  0  0  0  0
   27.1352   -7.4488   10.8557 H   0  0  0  0  0  0  0  0  0  0  0  0
   27.1339   -5.9229   11.7540 H   0  0  0  0  0  0  0  0  0  0  0  0
   29.1670   -5.1876   10.5078 H   0  0  0  0  0  0  0  0  0  0  0  0
   29.1682   -6.7135    9.6095 H   0  0  0  0  0  0  0  0  0  0  0  0
   29.3896   -7.9743   11.7515 H   0  0  0  0  0  0  0  0  0  0  0  0
   29.3883   -6.4484   12.6498 H   0  0  0  0  0  0  0  0  0  0  0  0
   31.4214   -5.7131   11.4036 H   0  0  0  0  0  0  0  0  0  0  0  0
   31.4227   -7.2390   10.5053 H   0  0  0  0  0  0  0  0  0  0  0  0
   31.6440   -8.4998   12.6474 H   0  0  0  0  0  0  0  0  0  0  0  0
   31.6427   -6.9739   13.5457 H   0  0  0  0  0  0  0  0  0  0  0  0
   33.6758   -6.2386   12.2995 H   0  0  0  0  0  0  0  0  0  0  0  0
   33.6771   -7.7645   11.4012 H   0  0  0  0  0  0  0  0  0  0  0  0
   33.8984   -9.0253   13.5432 H   0  0  0  0  0  0  0  0  0  0  0  0
   33.8971   -7.4994   14.4415 H   0  0  0  0  0  0  0  0  0  0  0  0
   35.9300   -6.7641   13.1939 H   0  0  0  0  0  0  0  0  0  0  0  0
   35.9317   -8.2913   12.2977 H   0  0  0  0  0  0  0  0  0  0  0  0
   36.1530   -9.5491   14.4415 H   0  0  0  0  0  0  0  0  0  0  0  0
   36.1513   -8.0219   15.3377 H   0  0  0  0  0  0  0  0  0  0  0  0
   38.1844   -7.2879   14.0907 H   0  0  0  0  0  0  0  0  0  0  0  0
   38.1861   -8.8150   13.1946 H   0  0  0  0  0  0  0  0  0  0  0  0
   38.4075  -10.0729   15.3384 H   0  0  0  0  0  0  0  0  0  0  0  0
   38.4057   -8.5457   16.2345 H   0  0  0  0  0  0  0  0  0  0  0  0
   40.4386   -7.8117   14.9862 H   0  0  0  0  0  0  0  0  0  0  0  0
   40.4407   -9.3401   14.0921 H   0  0  0  0  0  0  0  0  0  0  0  0
   40.6631  -10.5952   16.2368 H   0  0  0  0  0  0  0  0  0  0  0  0
   40.6589   -9.0674   17.1319 H   0  0  0  0  0  0  0  0  0  0  0  0
   42.6921   -8.3316   15.8874 H   0  0  0  0  0  0  0  0  0  0  0  0
   42.6960   -9.8582   14.9902 H   0  0  0  0  0  0  0  0  0  0  0  0
   42.9163  -11.1169   17.1342 H   0  0  0  0  0  0  0  0  0  0  0  0
   42.9145   -9.5897   18.0303 H   0  0  0  0  0  0  0  0  0  0  0  0
   44.9474   -8.8557   16.7819 H   0  0  0  0  0  0  0  0  0  0  0  0
   44.9495  -10.3841   15.8879 H   0  0  0  0  0  0  0  0  0  0  0  0
   45.1698  -11.6386   18.0344 H   0  0  0  0  0  0  0  0  0  0  0  0
   45.1698  -10.1095   18.9274 H   0  0  0  0  0  0  0  0  0  0  0  0
   47.2029   -9.3798   17.6779 H   0  0  0  0  0  0  0  0  0  0  0  0
   47.2029  -10.9089   16.7849 H   0  0  0  0  0  0  0  0  0  0  0  0
   47.4242  -12.1623   18.9313 H   0  0  0  0  0  0  0  0  0  0  0  0
   47.4242  -10.6333   19.8242 H   0  0  0  0  0  0  0  0  0  0  0  0
   49.4573   -9.9036   18.5747 H   0  0  0  0  0  0  0  0  0  0  0  0
   49.4573  -11.4326   17.6818 H   0  0  0  0  0  0  0  0  0  0  0  0
   49.6786  -12.6861   19.8281 H   0  0  0  0  0  0  0  0  0  0  0  0
   49.6786  -11.1571   20.7211 H   0  0  0  0  0  0  0  0  0  0  0  0
   51.7117  -10.4274   19.4716 H   0  0  0  0  0  0  0  0  0  0  0  0
   51.7117  -11.9564   18.5786 H   0  0  0  0  0  0  0  0  0  0  0  0
   51.9341  -13.2102   20.7241 H   0  0  0  0  0  0  0  0  0  0  0  0
   51.9320  -11.6818   21.6181 H   0  0  0  0  0  0  0  0  0  0  0  0
   53.9652  -10.9490   20.3718 H   0  0  0  0  0  0  0  0  0  0  0  0
   53.9670  -12.4762   19.4757 H   0  0  0  0  0  0  0  0  0  0  0  0
   54.1894  -13.7343   21.6186 H   0  0  0  0  0  0  0  0  0  0  0  0
   54.1855  -12.2078   22.5158 H   0  0  0  0  0  0  0  0  0  0  0  0
   56.2186  -11.4707   21.2706 H   0  0  0  0  0  0  0  0  0  0  0  0
   56.2224  -12.9973   20.3734 H   0  0  0  0  0  0  0  0  0  0  0  0
   56.4427  -14.2560   22.5174 H   0  0  0  0  0  0  0  0  0  0  0  0
   56.4410  -12.7289   23.4136 H   0  0  0  0  0  0  0  0  0  0  0  0
   58.4743  -11.9948   22.1680 H   0  0  0  0  0  0  0  0  0  0  0  0
   58.4755  -13.5207   21.2697 H   0  0  0  0  0  0  0  0  0  0  0  0
   58.6958  -14.7812   23.4127 H   0  0  0  0  0  0  0  0  0  0  0  0
   58.6967  -13.2547   24.3099 H   0  0  0  0  0  0  0  0  0  0  0  0
   60.7295  -12.5224   23.0605 H   0  0  0  0  0  0  0  0  0  0  0  0
   60.7291  -14.0502   22.1654 H   0  0  0  0  0  0  0  0  0  0  0  0
   60.9515  -15.3070   24.3090 H   0  0  0  0  0  0  0  0  0  0  0  0
   60.9498  -13.7799   25.2052 H   0  0  0  0  0  0  0  0  0  0  0  0
   62.9831  -13.0458   23.9597 H   0  0  0  0  0  0  0  0  0  0  0  0
   62.9844  -14.5717   23.0614 H   0  0  0  0  0  0  0  0  0  0  0  0
   63.2057  -15.8326   25.2035 H   0  0  0  0  0  0  0  0  0  0  0  0
   63.2044  -14.3066   26.1017 H   0  0  0  0  0  0  0  0  0  0  0  0
   65.2373  -13.5713   24.8541 H   0  0  0  0  0  0  0  0  0  0  0  0
   65.2390  -15.0985   23.9579 H   0  0  0  0  0  0  0  0  0  0  0  0
   65.4603  -16.3563   26.1017 H   0  0  0  0  0  0  0  0  0  0  0  0
   65.4586  -14.8291   26.9979 H   0  0  0  0  0  0  0  0  0  0  0  0
   67.4917  -14.0951   25.7510 H   0  0  0  0  0  0  0  0  0  0  0  0
   67.4934  -15.6223   24.8548 H   0  0  0  0  0  0  0  0  0  0  0  0
   67.7147  -16.8801   26.9986 H   0  0  0  0  0  0  0  0  0  0  0  0
   67.7130  -15.3529   27.8948 H   0  0  0  0  0  0  0  0  0  0  0  0
   69.7461  -14.6189   26.6478 H   0  0  0  0  0  0  0  0  0  0  0  0
   69.7478  -16.1460   25.7516 H   0  0  0  0  0  0  0  0  0  0  0  0
   69.9692  -17.4038   27.8955 H   0  0  0  0  0  0  0  0  0  0  0  0
   69.9674  -15.8767   28.7916 H   0  0  0  0  0  0  0  0  0  0  0  0
   72.0005  -15.1426   27.5447 H   0  0  0  0  0  0  0  0  0  0  0  0
   72.0022  -16.6698   26.6485 H   0  0  0  0  0  0  0  0  0  0  0  0
   72.2236  -17.9276   28.7923 H   0  0  0  0  0  0  0  0  0  0  0  0
   72.2218  -16.4004   29.6885 H   0  0  0  0  0  0  0  0  0  0  0  0
   74.2549  -15.6664   28.4415 H   0  0  0  0  0  0  0  0  0  0  0  0
   74.2566  -17.1936   27.5454 H   0  0  0  0  0  0  0  0  0  0  0  0
   74.4780  -18.4514   29.6892 H   0  0  0  0  0  0  0  0  0  0  0  0
   74.4763  -16.9242   30.5854 H   0  0  0  0  0  0  0  0  0  0  0  0
   76.5095  -16.1901   29.3398 H   0  0  0  0  0  0  0  0  0  0  0  0
   76.5108  -17.7161   28.4415 H   0  0  0  0  0  0  0  0  0  0  0  0
   76.7322  -18.9769   30.5836 H   0  0  0  0  0  0  0  0  0  0  0  0
   76.7309  -17.4510   31.4819 H   0  0  0  0  0  0  0  0  0  0  0  0
   78.7639  -16.7156   30.2357 H   0  0  0  0  0  0  0  0  0  0  0  0
   78.7652  -18.2416   29.3374 H   0  0  0  0  0  0  0  0  0  0  0  0
   78.9866  -19.5024   31.4794 H   0  0  0  0  0  0  0  0  0  0  0  0
   78.9853  -17.9765   32.3777 H   0  0  0  0  0  0  0  0  0  0  0  0
   81.0184  -17.2411   31.1315 H   0  0  0  0  0  0  0  0  0  0  0  0
   81.0196  -18.7671   30.2332 H   0  0  0  0  0  0  0  0  0  0  0  0
   81.2410  -20.0279   32.3752 H   0  0  0  0  0  0  0  0  0  0  0  0
   81.2397  -18.5020   33.2736 H   0  0  0  0  0  0  0  0  0  0  0  0
   83.2730  -17.7666   32.0288 H   0  0  0  0  0  0  0  0  0  0  0  0
   83.2738  -19.2913   31.1284 H   0  0  0  0  0  0  0  0  0  0  0  0
   83.4952  -20.5552   33.2686 H   0  0  0  0  0  0  0  0  0  0  0  0
   83.4943  -19.0305   34.1691 H   0  0  0  0  0  0  0  0  0  0  0  0
   85.5275  -18.2939   32.9237 H   0  0  0  0  0  0  0  0  0  0  0  0
   85.5283  -19.8186   32.0233 H   0  0  0  0  0  0  0  0  0  0  0  0
   85.7505  -21.0830   34.1629 H   0  0  0  0  0  0  0  0  0  0  0  0
   85.7476  -19.5588   35.0645 H   0  0  0  0  0  0  0  0  0  0  0  0
   87.7806  -18.8198   33.8194 H   0  0  0  0  0  0  0  0  0  0  0  0
   87.7840  -20.3444   32.9204 H   0  0  0  0  0  0  0  0  0  0  0  0
   88.0158  -21.6081   35.0635 H   0  0  0  0  0  0  0  0  0  0  0  0
   88.0124  -20.0827   35.9630 H   0  0  0  0  0  0  0  0  0  0  0  0
   90.0547  -20.8779   33.8275 H   0  0  0  0  0  0  0  0  0  0  0  0
   90.3255  -20.8816   35.5835 H   0  0  0  0  0  0  0  0  0  0  0  0
   90.0513  -19.3478   34.7298 H   0  0  0  0  0  0  0  0  0  0  0  0
  1  2  2  0  0  0  0
  1 81  1  0  0  0  0
  1 82  1  0  0  0  0
  2  3  1  0  0  0  0
  2 83  1  0  0  0  0
  3  4  1  0  0  0  0
  3 84  1  0  0  0  0
  3 85  1  0  0  0  0
  4  5  1  0  0  0  0
  4 86  1  0  0  0  0
  5  6  1  0  0  0  0
  5 87  1  0  0  0  0
  6  7  1  0  0  0  0
  6 88  1  0  0  0  0
  7  8  1  0  0  0  0
  7 89  1  0  0  0  0
  8  9  1  0  0  0  0
  8 90  1  0  0  0  0
  9 10  1  0  0  0  0
  9 91  1  0  0  0  0
  9 92  1  0  0  0  0
 10 11  1  0  0  0  0
 10 93  1  0  0  0  0
 11 12  1  0  0  0  0
 11 94  1  0  0  0  0
 11 95  1  0  0  0  0
 12 13  1  0  0  0  0
 12 96  1  0  0  0  0
 12 97  1  0  0  0  0
 13 14  1  0  0  0  0
 13 98  1  0  0  0  0
 13 99  1  0  0  0  0
 14 15  1  0  0  0  0
 14100  1  0  0  0  0
 14101  1  0  0  0  0
 15 16  1  0  0  0  0
 15102  1  0  0  0  0
 15103  1  0  0  0  0
 16 17  1  0  0  0  0
 16104  1  0  0  0  0
 16105  1  0  0  0  0
 17 18  1  0  0  0  0
 17106  1  0  0  0  0
 17107  1  0  0  0  0
 18 19  1  0  0  0  0
 18108  1  0  0  0  0
 18109  1  0  0  0  0
 19 20  1  0  0  0  0
 19110  1  0  0  0  0
 19111  1  0  0  0  0
 20 21  1  0  0  0  0
 20112  1  0  0  0  0
 20113  1  0  0  0  0
 21 22  1  0  0  0  0
 21114  1  0  0  0  0
 21115  1  0  0  0  0
 22 23  1  0  0  0  0
 22116  1  0  0  0  0
 22117  1  0  0  0  0
 23 24  1  0  0  0  0
 23118  1  0  0  0  0
 23119  1  0  0  0  0
 24 25  1  0  0  0  0
 24120  1  0  0  0  0
 24121  1  0  0  0  0
 25 26  1  0  0  0  0
 25122  1  0  0  0  0
 25123  1  0  0  0  0
 26 27  1  0  0  0  0
 26124  1  0  0  0  0
 26125  1  0  0  0  0
 27 28  1  0  0  0  0
 27126  1  0  0  0  0
 27127  1  0  0  0  0
 28 29  1  0  0  0  0
 28128  1  0  0  0  0
 28129  1  0  0  0  0
 29 30  1  0  0  0  0
 29130  1  0  0  0  0
 29131  1  0  0  0  0
 30 31  1  0  0  0  0
 30132  1  0  0  0  0
 30133  1  0  0  0  0
 31 32  1  0  0  0  0
 31134  1  0  0  0  0
 31135  1  0  0  0  0
 32 33  1  0  0  0  0
 32136  1  0  0  0  0
 32137  1  0  0  0  0
 33 34  1  0  0  0  0
 33138  1  0  0  0  0
 33139  1  0  0  0  0
 34 35  1  0  0  0  0
 34140  1  0  0  0  0
 34141  1  0  0  0  0
 35 36  1  0  0  0  0
 35142  1  0  0  0  0
 35143  1  0  0  0  0
 36 37  1  0  0  0  0
 36144  1  0  0  0  0
 36145  1  0  0  0  0
 37 38  1  0  0  0  0
 37146  1  0  0  0  0
 37147  1  0  0  0  0
 38 39  1  0  0  0  0
 38148  1  0  0  0  0
 38149  1  0  0  0  0
 39 40  1  0  0  0  0
 39150  1  0  0  0  0
 39151  1  0  0  0  0
 40 41  1  0  0  0  0
 40152  1  0  0  0  0
 40153  1  0  0  0  0
 41 42  1  0  0  0  0
 41154  1  0  0  0  0
 41155  1  0  0  0  0
 42 43  1  0  0  0  0
 42156  1  0  0  0  0
 42157  1  0  0  0  0
 43 44  1  0  0  0  0
 43158  1  0  0  0  0
 43159  1  0  0  0  0
 44 45  1  0  0  0  0
 44160  1  0  0  0  0
 44161  1  0  0  0  0
 45 46  1  0  0  0  0
 45162  1  0  0  0  0
 45163  1  0  0  0  0
 46 47  1  0  0  0  0
 46164  1  0  0  0  0
 46165  1  0  0  0  0
 47 48  1  0  0  0  0
 47166  1  0  0  0  0
 47167  1  0  0  0  0
 48 49  1  0  0  0  0
 48168  1  0  0  0  0
 48169  1  0  0  0  0
 49 50  1  0  0  0  0
 49170  1  0  0  0  0
 49171  1  0  0  0  0
 50 51  1  0  0  0  0
 50172  1  0  0  0  0
 50173  1  0  0  0  0
 51 52  1  0  0  0  0
 51174  1  0  0  0  0
 51175  1  0  0  0  0
 52 53  1  0  0  0  0
 52176  1  0  0  0  0
 52177  1  0  0  0  0
 53 54  1  0  0  0  0
 53178  1  0  0  0  0
 53179  1  0  0  0  0
 54 55  1  0  0  0  0
 54180  1  0  0  0  0
 54181  1  0  0  0  0
 55 56  1  0  0  0  0
 55182  1  0  0  0  0
 55183  1  0  0  0  0
 56 57  1  0  0  0  0
 56184  1  0  0  0  0
 56185  1  0  0  0  0
 57 58  1  0  0  0  0
 57186  1  0  0  0  0
 57187  1  0  0  0  0
 58 59  1  0  0  0  0
 58188  1  0  0  0  0
 58189  1  0  0  0  0
 59 60  1  0  0  0  0
 59190  1  0  0  0  0
 59191  1  0  0  0  0
 60 61  1  0  0  0  0
 60192  1  0  0  0  0
 60193  1  0  0  0  0
 61 62  1  0  0  0  0
 61194  1  0  0  0  0
 61195  1  0  0  0  0
 62 63  1  0  0  0  0
 62196  1  0  0  0  0
 62197  1  0  0  0  0
 63 64  1  0  0  0  0
 63198  1  0  0  0  0
 63199  1  0  0  0  0
 64 65  1  0  0  0  0
 64200  1  0  0  0  0
 64201  1  0  0  0  0
 65 66  1  0  0  0  0
 65202  1  0  0  0  0
 65203  1  0  0  0  0
 66 67  1  0  0  0  0
 66204  1  0  0  0  0
 66205  1  0  0  0  0
 67 68  1  0  0  0  0
 67206  1  0  0  0  0
 67207  1  0  0  0  0
 68 69  1  0  0  0  0
 68208  1  0  0  0  0
 68209  1  0  0  0  0
 69 70  1  0  0  0  0
 69210  1  0  0  0  0
 69211  1  0  0  0  0
 70 71  1  0  0  0  0
 70212  1  0  0  0  0
 70213  1  0  0  0  0
 71 72  1  0  0  0  0
 71214  1  0  0  0  0
 71215  1  0  0  0  0
 72 73  1  0  0  0  0
 72216  1  0  0  0  0
 72217  1  0  0  0  0
 73 74  1  0  0  0  0
 73218  1  0  0  0  0
 73219  1  0  0  0  0
 74 75  1  0  0  0  0
 74220  1  0  0  0  0
 74221  1  0  0  0  0
 75 76  1  0  0  0  0
 75222  1  0  0  0  0
 75223  1  0  0  0  0
 76 77  1  0  0  0  0
 76224  1  0  0  0  0
 76225  1  0  0  0  0
 77 78  1  0  0  0  0
 77226  1  0  0  0  0
 77227  1  0  0  0  0
 78 79  1  0  0  0  0
 78228  1  0  0  0  0
 78229  1  0  0  0  0
 79 80  1  0  0  0  0
 79230  1  0  0  0  0
 79231  1  0  0  0  0
 80232  1  0  0  0  0
 80233  1  0  0  0  0
 80234  1  0  0  0  0
M  END
$$$$
