
 OpenBabel04232216453D

 49 50  0  0  1  0  0  0  0  0999 V2000
    3.8829   -0.3016    0.3626 C   0  0  0  0  0  0  0  0  0  0  0  0
    5.3756   -0.5296    0.0193 C   0  0  3  0  0  0  0  0  0  0  0  0
    6.0814    0.7756   -0.5445 C   0  0  0  0  0  0  0  0  0  0  0  0
    7.2088    1.1967    0.0412 C   0  0  0  0  0  0  0  0  0  0  0  0
    7.2920    1.3286    1.5224 C   0  0  0  0  0  0  0  0  0  0  0  0
    8.5928    0.9974   -0.5676 C   0  0  0  0  0  0  0  0  0  0  0  0
    9.0642   -0.2067   -0.9968 C   0  0  0  0  0  0  0  0  0  0  0  0
    7.9283   -1.0559   -1.2518 C   0  0  0  0  0  0  0  0  0  0  0  0
    7.0265   -1.9145   -1.7175 C   0  0  0  0  0  0  0  0  0  0  0  0
    7.0952   -2.1959   -3.2801 C   0  0  3  0  0  0  0  0  0  0  0  0
    6.3792   -1.0970   -4.0782 C   0  0  0  0  0  0  0  0  0  0  0  0
    8.6170   -2.2663   -3.7242 C   0  0  0  0  0  0  0  0  0  0  0  0
    9.1879   -1.8964   -5.1005 C   0  0  0  0  0  0  0  0  0  0  0  0
   10.4897   -1.0257   -5.0026 C   0  0  0  0  0  0  0  0  0  0  0  0
   11.7709   -1.7346   -4.5714 C   0  0  0  0  0  0  0  0  0  0  0  0
   12.2043   -1.6654   -3.0889 C   0  0  0  0  0  0  0  0  0  0  0  0
   11.1791   -1.8435   -1.9361 C   0  0  0  0  0  0  0  0  0  0  0  0
   10.5487   -0.5438   -1.2943 C   0  0  0  0  0  0  0  0  0  0  0  0
    5.6954   -1.8772   -0.8529 C   0  0  0  0  0  0  0  0  0  0  0  0
    3.3511    0.3000   -0.3826 H   0  0  0  0  0  0  0  0  0  0  0  0
    3.7945    0.2426    1.3162 H   0  0  0  0  0  0  0  0  0  0  0  0
    3.3398   -1.2432    0.5004 H   0  0  0  0  0  0  0  0  0  0  0  0
    5.8240   -0.7419    1.0007 H   0  0  0  0  0  0  0  0  0  0  0  0
    5.9312    0.7895   -1.6315 H   0  0  0  0  0  0  0  0  0  0  0  0
    6.2984    1.5140    1.9581 H   0  0  0  0  0  0  0  0  0  0  0  0
    7.9212    2.1888    1.7861 H   0  0  0  0  0  0  0  0  0  0  0  0
    7.7134    0.4260    1.9866 H   0  0  0  0  0  0  0  0  0  0  0  0
    9.2661    1.8537   -0.4634 H   0  0  0  0  0  0  0  0  0  0  0  0
    7.7875   -0.3785   -2.1216 H   0  0  0  0  0  0  0  0  0  0  0  0
    6.6282   -3.1625   -3.4878 H   0  0  0  0  0  0  0  0  0  0  0  0
    6.8779   -0.1254   -3.9762 H   0  0  0  0  0  0  0  0  0  0  0  0
    5.3400   -0.9709   -3.7588 H   0  0  0  0  0  0  0  0  0  0  0  0
    6.3728   -1.3328   -5.1471 H   0  0  0  0  0  0  0  0  0  0  0  0
    8.9967   -3.2474   -3.4323 H   0  0  0  0  0  0  0  0  0  0  0  0
    9.1150   -1.5302   -3.1300 H   0  0  0  0  0  0  0  0  0  0  0  0
    8.4672   -1.3185   -5.6864 H   0  0  0  0  0  0  0  0  0  0  0  0
    9.4075   -2.8057   -5.6579 H   0  0  0  0  0  0  0  0  0  0  0  0
   10.3300   -0.1327   -4.3745 H   0  0  0  0  0  0  0  0  0  0  0  0
   10.6662   -0.6346   -6.0147 H   0  0  0  0  0  0  0  0  0  0  0  0
   12.5990   -1.2701   -5.1361 H   0  0  0  0  0  0  0  0  0  0  0  0
   11.7659   -2.7725   -4.9225 H   0  0  0  0  0  0  0  0  0  0  0  0
   12.9421   -2.4790   -2.9867 H   0  0  0  0  0  0  0  0  0  0  0  0
   12.7958   -0.7542   -2.9240 H   0  0  0  0  0  0  0  0  0  0  0  0
   11.7823   -2.2889   -1.1298 H   0  0  0  0  0  0  0  0  0  0  0  0
   10.4777   -2.6444   -2.1551 H   0  0  0  0  0  0  0  0  0  0  0  0
   11.0071    0.3349   -1.7592 H   0  0  0  0  0  0  0  0  0  0  0  0
   10.9562   -0.5761   -0.2657 H   0  0  0  0  0  0  0  0  0  0  0  0
    5.7857   -2.6845   -0.1082 H   0  0  0  0  0  0  0  0  0  0  0  0
    4.8241   -2.1392   -1.4667 H   0  0  0  0  0  0  0  0  0  0  0  0
  1  2  1  0  0  0  0
  1 20  1  0  0  0  0
  1 21  1  0  0  0  0
  1 22  1  0  0  0  0
  2  3  1  0  0  0  0
  2 19  1  0  0  0  0
  2 23  1  0  0  0  0
  3  4  2  0  0  0  0
  3 24  1  0  0  0  0
  4  5  1  0  0  0  0
  4  6  1  0  0  0  0
  5 25  1  0  0  0  0
  5 26  1  0  0  0  0
  5 27  1  0  0  0  0
  6  7  2  0  0  0  0
  6 28  1  0  0  0  0
  7  8  1  0  0  0  0
  7 18  1  0  0  0  0
  8  9  2  0  0  0  0
  8 29  1  0  0  0  0
  9 10  1  0  0  0  0
  9 19  1  0  0  0  0
 10 11  1  0  0  0  0
 10 12  1  0  0  0  0
 10 30  1  0  0  0  0
 11 31  1  0  0  0  0
 11 32  1  0  0  0  0
 11 33  1  0  0  0  0
 12 13  1  0  0  0  0
 12 34  1  0  0  0  0
 12 35  1  0  0  0  0
 13 14  1  0  0  0  0
 13 36  1  0  0  0  0
 13 37  1  0  0  0  0
 14 15  1  0  0  0  0
 14 38  1  0  0  0  0
 14 39  1  0  0  0  0
 15 16  1  0  0  0  0
 15 40  1  0  0  0  0
 15 41  1  0  0  0  0
 16 17  1  0  0  0  0
 16 42  1  0  0  0  0
 16 43  1  0  0  0  0
 17 18  1  0  0  0  0
 17 44  1  0  0  0  0
 17 45  1  0  0  0  0
 18 46  1  0  0  0  0
 18 47  1  0  0  0  0
 19 48  1  0  0  0  0
 19 49  1  0  0  0  0
M  END
$$$$
