
 OpenBabel04232217003D

237236  0  0  0  0  0  0  0  0999 V2000
    3.9640   -7.5657   -3.7159 O   0  0  0  0  0  0  0  0  0  0  0  0
    5.2509   -7.1091   -3.3322 C   0  0  0  0  0  0  0  0  0  0  0  0
    5.2255   -6.7509   -1.8582 C   0  0  0  0  0  0  0  0  0  0  0  0
    6.5902   -6.2539   -1.4081 C   0  0  0  0  0  0  0  0  0  0  0  0
    6.5666   -5.8944    0.0693 C   0  0  0  0  0  0  0  0  0  0  0  0
    7.9346   -5.3984    0.5115 C   0  0  0  0  0  0  0  0  0  0  0  0
    7.9140   -5.0400    1.9898 C   0  0  0  0  0  0  0  0  0  0  0  0
    9.2843   -4.5420    2.4297 C   0  0  0  0  0  0  0  0  0  0  0  0
    9.2729   -4.1809    3.9133 C   0  0  0  0  0  0  0  0  0  0  0  0
   10.6195   -3.6871    4.3399 C   0  0  0  0  0  0  0  0  0  0  0  0
   11.3472   -4.2837    5.2966 C   0  0  0  0  0  0  0  0  0  0  0  0
   12.5838   -3.9059    5.7312 N   0  0  0  0  0  0  0  0  0  0  0  0
   13.3262   -4.5742    6.7726 C   0  0  0  0  0  0  0  0  0  0  0  0
   14.8213   -4.4158    6.5371 C   0  0  0  0  0  0  0  0  0  0  0  0
   15.5999   -5.1321    7.6325 C   0  0  0  0  0  0  0  0  0  0  0  0
   17.0961   -4.9832    7.4119 C   0  0  0  0  0  0  0  0  0  0  0  0
   17.8618   -5.7017    8.5106 C   0  0  0  0  0  0  0  0  0  0  0  0
   19.3559   -5.5508    8.2872 C   0  0  0  0  0  0  0  0  0  0  0  0
   20.1198   -6.2685    9.3847 C   0  0  0  0  0  0  0  0  0  0  0  0
   21.6125   -6.1165    9.1594 C   0  0  0  0  0  0  0  0  0  0  0  0
   22.3753   -6.8341   10.2567 C   0  0  0  0  0  0  0  0  0  0  0  0
   23.8675   -6.6818   10.0312 C   0  0  0  0  0  0  0  0  0  0  0  0
   24.6302   -7.3993   11.1284 C   0  0  0  0  0  0  0  0  0  0  0  0
   26.1221   -7.2453   10.9037 C   0  0  0  0  0  0  0  0  0  0  0  0
   26.8847   -7.9628   12.0009 C   0  0  0  0  0  0  0  0  0  0  0  0
   28.3766   -7.8104   11.7752 C   0  0  0  0  0  0  0  0  0  0  0  0
   29.1392   -8.5280   12.8723 C   0  0  0  0  0  0  0  0  0  0  0  0
   30.6311   -8.3772   12.6455 C   0  0  0  0  0  0  0  0  0  0  0  0
   31.3936   -9.0931   13.7437 C   0  0  0  0  0  0  0  0  0  0  0  0
   32.8855   -8.9407   13.5180 C   0  0  0  0  0  0  0  0  0  0  0  0
   33.6480   -9.6582   14.6151 C   0  0  0  0  0  0  0  0  0  0  0  0
   35.1398   -9.5075   14.3883 C   0  0  0  0  0  0  0  0  0  0  0  0
   35.9024  -10.2267   15.4843 C   0  0  0  0  0  0  0  0  0  0  0  0
   37.3943  -10.0777   15.2564 C   0  0  0  0  0  0  0  0  0  0  0  0
   38.1568  -10.7952   16.3535 C   0  0  0  0  0  0  0  0  0  0  0  0
   39.6487  -10.6462   16.1256 C   0  0  0  0  0  0  0  0  0  0  0  0
   40.4112  -11.3637   17.2227 C   0  0  0  0  0  0  0  0  0  0  0  0
   41.9031  -11.2147   16.9948 C   0  0  0  0  0  0  0  0  0  0  0  0
   42.6656  -11.9322   18.0919 C   0  0  0  0  0  0  0  0  0  0  0  0
   44.1575  -11.7832   17.8640 C   0  0  0  0  0  0  0  0  0  0  0  0
   44.9200  -12.5007   18.9611 C   0  0  0  0  0  0  0  0  0  0  0  0
   46.4119  -12.3517   18.7332 C   0  0  0  0  0  0  0  0  0  0  0  0
   47.1744  -13.0709   19.8292 C   0  0  0  0  0  0  0  0  0  0  0  0
   48.6663  -12.9202   19.6024 C   0  0  0  0  0  0  0  0  0  0  0  0
   49.4288  -13.6377   20.6995 C   0  0  0  0  0  0  0  0  0  0  0  0
   50.9207  -13.4887   20.4716 C   0  0  0  0  0  0  0  0  0  0  0  0
   51.6832  -14.2079   21.5676 C   0  0  0  0  0  0  0  0  0  0  0  0
   53.1751  -14.0572   21.3408 C   0  0  0  0  0  0  0  0  0  0  0  0
   53.9376  -14.7764   22.4368 C   0  0  0  0  0  0  0  0  0  0  0  0
   55.4295  -14.6257   22.2100 C   0  0  0  0  0  0  0  0  0  0  0  0
   56.1920  -15.3449   23.3060 C   0  0  0  0  0  0  0  0  0  0  0  0
   57.6839  -15.1942   23.0792 C   0  0  0  0  0  0  0  0  0  0  0  0
   58.4464  -15.9134   24.1752 C   0  0  0  0  0  0  0  0  0  0  0  0
   59.9383  -15.7627   23.9484 C   0  0  0  0  0  0  0  0  0  0  0  0
   60.7008  -16.4819   25.0444 C   0  0  0  0  0  0  0  0  0  0  0  0
   62.1927  -16.3312   24.8176 C   0  0  0  0  0  0  0  0  0  0  0  0
   62.9552  -17.0487   25.9147 C   0  0  0  0  0  0  0  0  0  0  0  0
   64.4471  -16.8980   25.6880 C   0  0  0  0  0  0  0  0  0  0  0  0
   65.2096  -17.6139   26.7862 C   0  0  0  0  0  0  0  0  0  0  0  0
   66.7015  -17.4631   26.5594 C   0  0  0  0  0  0  0  0  0  0  0  0
   67.4640  -18.1807   27.6565 C   0  0  0  0  0  0  0  0  0  0  0  0
   68.9559  -18.0316   27.4286 C   0  0  0  0  0  0  0  0  0  0  0  0
   69.7184  -18.7475   28.5268 C   0  0  0  0  0  0  0  0  0  0  0  0
   71.2103  -18.5968   28.3000 C   0  0  0  0  0  0  0  0  0  0  0  0
   71.9728  -19.3143   29.3971 C   0  0  0  0  0  0  0  0  0  0  0  0
   73.4647  -19.1619   29.1714 C   0  0  0  0  0  0  0  0  0  0  0  0
   74.2273  -19.8778   30.2696 C   0  0  0  0  0  0  0  0  0  0  0  0
   75.7192  -19.7271   30.0429 C   0  0  0  0  0  0  0  0  0  0  0  0
   76.4818  -20.4430   31.1411 C   0  0  0  0  0  0  0  0  0  0  0  0
   77.9737  -20.2937   30.9131 C   0  0  0  0  0  0  0  0  0  0  0  0
   78.7363  -21.0114   32.0102 C   0  0  0  0  0  0  0  0  0  0  0  0
   80.2282  -20.8623   31.7822 C   0  0  0  0  0  0  0  0  0  0  0  0
   80.9909  -21.5798   32.8794 C   0  0  0  0  0  0  0  0  0  0  0  0
   82.4831  -21.4310   32.6517 C   0  0  0  0  0  0  0  0  0  0  0  0
   83.2461  -22.1504   33.7481 C   0  0  0  0  0  0  0  0  0  0  0  0
   84.7393  -22.0023   33.5214 C   0  0  0  0  0  0  0  0  0  0  0  0
   85.5038  -22.7222   34.6186 C   0  0  0  0  0  0  0  0  0  0  0  0
   86.9989  -22.5768   34.3925 C   0  0  0  0  0  0  0  0  0  0  0  0
   87.7733  -23.2935   35.4883 C   0  0  0  0  0  0  0  0  0  0  0  0
   89.2641  -23.1460   35.2591 C   0  0  0  0  0  0  0  0  0  0  0  0
    4.0140   -7.7859   -4.6612 H   0  0  0  0  0  0  0  0  0  0  0  0
    5.5102   -6.2344   -3.9373 H   0  0  0  0  0  0  0  0  0  0  0  0
    5.9792   -7.9037   -3.5236 H   0  0  0  0  0  0  0  0  0  0  0  0
    4.9243   -7.6257   -1.2683 H   0  0  0  0  0  0  0  0  0  0  0  0
    4.4610   -5.9855   -1.6748 H   0  0  0  0  0  0  0  0  0  0  0  0
    6.8796   -5.3753   -1.9978 H   0  0  0  0  0  0  0  0  0  0  0  0
    7.3464   -7.0280   -1.5882 H   0  0  0  0  0  0  0  0  0  0  0  0
    6.2803   -6.7721    0.6616 H   0  0  0  0  0  0  0  0  0  0  0  0
    5.8133   -5.1184    0.2518 H   0  0  0  0  0  0  0  0  0  0  0  0
    8.2209   -4.5205   -0.0806 H   0  0  0  0  0  0  0  0  0  0  0  0
    8.6887   -6.1734    0.3267 H   0  0  0  0  0  0  0  0  0  0  0  0
    7.6282   -5.9198    2.5797 H   0  0  0  0  0  0  0  0  0  0  0  0
    7.1578   -4.2663    2.1724 H   0  0  0  0  0  0  0  0  0  0  0  0
    9.5648   -3.6664    1.8311 H   0  0  0  0  0  0  0  0  0  0  0  0
   10.0352   -5.3187    2.2383 H   0  0  0  0  0  0  0  0  0  0  0  0
    8.9834   -5.0597    4.4979 H   0  0  0  0  0  0  0  0  0  0  0  0
    8.5264   -3.4018    4.0945 H   0  0  0  0  0  0  0  0  0  0  0  0
   11.0225   -2.8086    3.8460 H   0  0  0  0  0  0  0  0  0  0  0  0
   10.9690   -5.1649    5.8004 H   0  0  0  0  0  0  0  0  0  0  0  0
   12.9835   -3.0776    5.2994 H   0  0  0  0  0  0  0  0  0  0  0  0
   13.0699   -5.6401    6.7839 H   0  0  0  0  0  0  0  0  0  0  0  0
   13.0562   -4.1539    7.7479 H   0  0  0  0  0  0  0  0  0  0  0  0
   15.0923   -3.3525    6.5231 H   0  0  0  0  0  0  0  0  0  0  0  0
   15.0960   -4.8254    5.5565 H   0  0  0  0  0  0  0  0  0  0  0  0
   15.3333   -6.1964    7.6444 H   0  0  0  0  0  0  0  0  0  0  0  0
   15.3290   -4.7203    8.6126 H   0  0  0  0  0  0  0  0  0  0  0  0
   17.3690   -3.9209    7.4042 H   0  0  0  0  0  0  0  0  0  0  0  0
   17.3733   -5.3980    6.4352 H   0  0  0  0  0  0  0  0  0  0  0  0
   17.5930   -6.7652    8.5209 H   0  0  0  0  0  0  0  0  0  0  0  0
   17.5888   -5.2886    9.4895 H   0  0  0  0  0  0  0  0  0  0  0  0
   19.6273   -4.4880    8.2784 H   0  0  0  0  0  0  0  0  0  0  0  0
   19.6315   -5.9649    7.3095 H   0  0  0  0  0  0  0  0  0  0  0  0
   19.8503   -7.3318    9.3943 H   0  0  0  0  0  0  0  0  0  0  0  0
   19.8461   -5.8549   10.3631 H   0  0  0  0  0  0  0  0  0  0  0  0
   21.8830   -5.0534    9.1503 H   0  0  0  0  0  0  0  0  0  0  0  0
   21.8873   -6.5304    8.1814 H   0  0  0  0  0  0  0  0  0  0  0  0
   22.1054   -7.8973   10.2661 H   0  0  0  0  0  0  0  0  0  0  0  0
   22.1012   -6.4203   11.2350 H   0  0  0  0  0  0  0  0  0  0  0  0
   24.1377   -5.6187   10.0220 H   0  0  0  0  0  0  0  0  0  0  0  0
   24.1420   -7.0957    9.0531 H   0  0  0  0  0  0  0  0  0  0  0  0
   24.3612   -8.4628   11.1367 H   0  0  0  0  0  0  0  0  0  0  0  0
   24.3549   -6.9865   12.1067 H   0  0  0  0  0  0  0  0  0  0  0  0
   26.3912   -6.1818   10.8954 H   0  0  0  0  0  0  0  0  0  0  0  0
   26.3976   -7.6581    9.9254 H   0  0  0  0  0  0  0  0  0  0  0  0
   26.6146   -9.0260   12.0102 H   0  0  0  0  0  0  0  0  0  0  0  0
   26.6103   -7.5489   12.9791 H   0  0  0  0  0  0  0  0  0  0  0  0
   28.6467   -6.7473   11.7659 H   0  0  0  0  0  0  0  0  0  0  0  0
   28.6510   -8.2243   10.7970 H   0  0  0  0  0  0  0  0  0  0  0  0
   28.8681   -9.5909   12.8825 H   0  0  0  0  0  0  0  0  0  0  0  0
   28.8658   -8.1132   13.8504 H   0  0  0  0  0  0  0  0  0  0  0  0
   30.9020   -7.3143   12.6340 H   0  0  0  0  0  0  0  0  0  0  0  0
   30.9046   -8.7933   11.6680 H   0  0  0  0  0  0  0  0  0  0  0  0
   31.1237  -10.1563   13.7543 H   0  0  0  0  0  0  0  0  0  0  0  0
   31.1190   -8.6780   14.7213 H   0  0  0  0  0  0  0  0  0  0  0  0
   33.1555   -7.8775   13.5088 H   0  0  0  0  0  0  0  0  0  0  0  0
   33.1598   -9.3545   12.5398 H   0  0  0  0  0  0  0  0  0  0  0  0
   33.3768  -10.7211   14.6252 H   0  0  0  0  0  0  0  0  0  0  0  0
   33.3746   -9.2434   15.5932 H   0  0  0  0  0  0  0  0  0  0  0  0
   35.4112   -8.4446   14.3796 H   0  0  0  0  0  0  0  0  0  0  0  0
   35.4129   -9.9210   13.4096 H   0  0  0  0  0  0  0  0  0  0  0  0
   35.6300  -11.2893   15.4940 H   0  0  0  0  0  0  0  0  0  0  0  0
   35.6303   -9.8123   16.4629 H   0  0  0  0  0  0  0  0  0  0  0  0
   37.6665   -9.0151   15.2454 H   0  0  0  0  0  0  0  0  0  0  0  0
   37.6665  -10.4934   14.2785 H   0  0  0  0  0  0  0  0  0  0  0  0
   37.8845  -11.8578   16.3646 H   0  0  0  0  0  0  0  0  0  0  0  0
   37.8846  -10.3795   17.3315 H   0  0  0  0  0  0  0  0  0  0  0  0
   39.9209   -9.5836   16.1146 H   0  0  0  0  0  0  0  0  0  0  0  0
   39.9209  -11.0619   15.1477 H   0  0  0  0  0  0  0  0  0  0  0  0
   40.1390  -12.4263   17.2338 H   0  0  0  0  0  0  0  0  0  0  0  0
   40.1390  -10.9480   18.2007 H   0  0  0  0  0  0  0  0  0  0  0  0
   42.1753  -10.1521   16.9838 H   0  0  0  0  0  0  0  0  0  0  0  0
   42.1753  -11.6304   16.0169 H   0  0  0  0  0  0  0  0  0  0  0  0
   42.3934  -12.9948   18.1030 H   0  0  0  0  0  0  0  0  0  0  0  0
   42.3934  -11.5165   19.0699 H   0  0  0  0  0  0  0  0  0  0  0  0
   44.4297  -10.7206   17.8530 H   0  0  0  0  0  0  0  0  0  0  0  0
   44.4297  -12.1989   16.8861 H   0  0  0  0  0  0  0  0  0  0  0  0
   44.6478  -13.5633   18.9722 H   0  0  0  0  0  0  0  0  0  0  0  0
   44.6478  -12.0850   19.9391 H   0  0  0  0  0  0  0  0  0  0  0  0
   46.6843  -11.2891   18.7236 H   0  0  0  0  0  0  0  0  0  0  0  0
   46.6839  -12.7661   17.7547 H   0  0  0  0  0  0  0  0  0  0  0  0
   46.9030  -14.1337   19.8379 H   0  0  0  0  0  0  0  0  0  0  0  0
   46.9013  -12.6574   20.8079 H   0  0  0  0  0  0  0  0  0  0  0  0
   48.9375  -11.8573   19.5923 H   0  0  0  0  0  0  0  0  0  0  0  0
   48.9395  -13.3349   18.6243 H   0  0  0  0  0  0  0  0  0  0  0  0
   49.1566  -14.7003   20.7106 H   0  0  0  0  0  0  0  0  0  0  0  0
   49.1566  -13.2220   21.6775 H   0  0  0  0  0  0  0  0  0  0  0  0
   51.1931  -12.4261   20.4620 H   0  0  0  0  0  0  0  0  0  0  0  0
   51.1927  -13.9031   19.4931 H   0  0  0  0  0  0  0  0  0  0  0  0
   51.4118  -15.2708   21.5763 H   0  0  0  0  0  0  0  0  0  0  0  0
   51.4101  -13.7944   22.5463 H   0  0  0  0  0  0  0  0  0  0  0  0
   53.4465  -12.9943   21.3322 H   0  0  0  0  0  0  0  0  0  0  0  0
   53.4482  -14.4707   20.3621 H   0  0  0  0  0  0  0  0  0  0  0  0
   53.6662  -15.8393   22.4455 H   0  0  0  0  0  0  0  0  0  0  0  0
   53.6645  -14.3629   23.4155 H   0  0  0  0  0  0  0  0  0  0  0  0
   55.7009  -13.5628   22.2014 H   0  0  0  0  0  0  0  0  0  0  0  0
   55.7026  -15.0392   21.2313 H   0  0  0  0  0  0  0  0  0  0  0  0
   55.9206  -16.4078   23.3147 H   0  0  0  0  0  0  0  0  0  0  0  0
   55.9189  -14.9314   24.2847 H   0  0  0  0  0  0  0  0  0  0  0  0
   57.9553  -14.1313   23.0706 H   0  0  0  0  0  0  0  0  0  0  0  0
   57.9570  -15.6077   22.1005 H   0  0  0  0  0  0  0  0  0  0  0  0
   58.1751  -16.9763   24.1839 H   0  0  0  0  0  0  0  0  0  0  0  0
   58.1733  -15.4999   25.1539 H   0  0  0  0  0  0  0  0  0  0  0  0
   60.2097  -14.6998   23.9398 H   0  0  0  0  0  0  0  0  0  0  0  0
   60.2114  -16.1762   22.9697 H   0  0  0  0  0  0  0  0  0  0  0  0
   60.4295  -17.5448   25.0531 H   0  0  0  0  0  0  0  0  0  0  0  0
   60.4277  -16.0684   26.0231 H   0  0  0  0  0  0  0  0  0  0  0  0
   62.4639  -15.2683   24.8076 H   0  0  0  0  0  0  0  0  0  0  0  0
   62.4660  -16.7460   23.8395 H   0  0  0  0  0  0  0  0  0  0  0  0
   62.6841  -18.1116   25.9249 H   0  0  0  0  0  0  0  0  0  0  0  0
   62.6819  -16.6340   26.8928 H   0  0  0  0  0  0  0  0  0  0  0  0
   64.7181  -15.8351   25.6764 H   0  0  0  0  0  0  0  0  0  0  0  0
   64.7206  -17.3141   24.7105 H   0  0  0  0  0  0  0  0  0  0  0  0
   64.9387  -18.6768   26.7977 H   0  0  0  0  0  0  0  0  0  0  0  0
   64.9361  -17.1978   27.7637 H   0  0  0  0  0  0  0  0  0  0  0  0
   66.9727  -16.4002   26.5492 H   0  0  0  0  0  0  0  0  0  0  0  0
   66.9748  -17.8779   25.5813 H   0  0  0  0  0  0  0  0  0  0  0  0
   67.1919  -19.2433   27.6675 H   0  0  0  0  0  0  0  0  0  0  0  0
   67.1918  -17.7649   28.6344 H   0  0  0  0  0  0  0  0  0  0  0  0
   69.2279  -16.9690   27.4161 H   0  0  0  0  0  0  0  0  0  0  0  0
   69.2284  -18.4487   26.4512 H   0  0  0  0  0  0  0  0  0  0  0  0
   69.4475  -19.8104   28.5383 H   0  0  0  0  0  0  0  0  0  0  0  0
   69.4450  -18.3314   29.5043 H   0  0  0  0  0  0  0  0  0  0  0  0
   71.4814  -17.5339   28.2899 H   0  0  0  0  0  0  0  0  0  0  0  0
   71.4837  -19.0116   27.3219 H   0  0  0  0  0  0  0  0  0  0  0  0
   71.7028  -20.3775   29.4063 H   0  0  0  0  0  0  0  0  0  0  0  0
   71.6985  -18.9005   30.3753 H   0  0  0  0  0  0  0  0  0  0  0  0
   73.7346  -18.0987   29.1608 H   0  0  0  0  0  0  0  0  0  0  0  0
   73.7393  -19.5770   28.1938 H   0  0  0  0  0  0  0  0  0  0  0  0
   73.9563  -20.9407   30.2812 H   0  0  0  0  0  0  0  0  0  0  0  0
   73.9536  -19.4617   31.2471 H   0  0  0  0  0  0  0  0  0  0  0  0
   75.9901  -18.6641   30.0314 H   0  0  0  0  0  0  0  0  0  0  0  0
   75.9927  -20.1431   29.0654 H   0  0  0  0  0  0  0  0  0  0  0  0
   76.2099  -21.5056   31.1534 H   0  0  0  0  0  0  0  0  0  0  0  0
   76.2092  -20.0261   32.1184 H   0  0  0  0  0  0  0  0  0  0  0  0
   78.2458  -19.2310   30.9023 H   0  0  0  0  0  0  0  0  0  0  0  0
   78.2460  -20.7092   29.9352 H   0  0  0  0  0  0  0  0  0  0  0  0
   78.4639  -22.0740   32.0213 H   0  0  0  0  0  0  0  0  0  0  0  0
   78.4640  -20.5957   32.9882 H   0  0  0  0  0  0  0  0  0  0  0  0
   80.5003  -19.7997   31.7710 H   0  0  0  0  0  0  0  0  0  0  0  0
   80.5002  -21.2781   30.8042 H   0  0  0  0  0  0  0  0  0  0  0  0
   80.7184  -22.6424   32.8905 H   0  0  0  0  0  0  0  0  0  0  0  0
   80.7185  -21.1640   33.8573 H   0  0  0  0  0  0  0  0  0  0  0  0
   82.7553  -20.3684   32.6419 H   0  0  0  0  0  0  0  0  0  0  0  0
   82.7548  -21.8455   31.6731 H   0  0  0  0  0  0  0  0  0  0  0  0
   82.9729  -23.2127   33.7575 H   0  0  0  0  0  0  0  0  0  0  0  0
   82.9734  -21.7357   34.7263 H   0  0  0  0  0  0  0  0  0  0  0  0
   85.0109  -20.9395   33.5111 H   0  0  0  0  0  0  0  0  0  0  0  0
   85.0103  -22.4163   32.5423 H   0  0  0  0  0  0  0  0  0  0  0  0
   85.2281  -23.7838   34.6282 H   0  0  0  0  0  0  0  0  0  0  0  0
   85.2307  -22.3060   35.5960 H   0  0  0  0  0  0  0  0  0  0  0  0
   87.2687  -21.5135   34.3779 H   0  0  0  0  0  0  0  0  0  0  0  0
   87.2664  -22.9917   33.4127 H   0  0  0  0  0  0  0  0  0  0  0  0
   87.5048  -24.3563   35.5013 H   0  0  0  0  0  0  0  0  0  0  0  0
   87.5070  -22.8774   36.4670 H   0  0  0  0  0  0  0  0  0  0  0  0
   89.5502  -23.5756   34.2936 H   0  0  0  0  0  0  0  0  0  0  0  0
   89.8212  -23.6606   36.0459 H   0  0  0  0  0  0  0  0  0  0  0  0
   89.5524  -22.0900   35.2636 H   0  0  0  0  0  0  0  0  0  0  0  0
  1  2  1  0  0  0  0
  1 81  1  0  0  0  0
  2  3  1  0  0  0  0
  2 82  1  0  0  0  0
  2 83  1  0  0  0  0
  3  4  1  0  0  0  0
  3 84  1  0  0  0  0
  3 85  1  0  0  0  0
  4  5  1  0  0  0  0
  4 86  1  0  0  0  0
  4 87  1  0  0  0  0
  5  6  1  0  0  0  0
  5 88  1  0  0  0  0
  5 89  1  0  0  0  0
  6  7  1  0  0  0  0
  6 90  1  0  0  0  0
  6 91  1  0  0  0  0
  7  8  1  0  0  0  0
  7 92  1  0  0  0  0
  7 93  1  0  0  0  0
  8  9  1  0  0  0  0
  8 94  1  0  0  0  0
  8 95  1  0  0  0  0
  9 10  1  0  0  0  0
  9 96  1  0  0  0  0
  9 97  1  0  0  0  0
 10 11  2  3  0  0  0
 10 98  1  0  0  0  0
 11 12  1  0  0  0  0
 11 99  1  0  0  0  0
 12 13  1  0  0  0  0
 12100  1  0  0  0  0
 13 14  1  0  0  0  0
 13101  1  0  0  0  0
 13102  1  0  0  0  0
 14 15  1  0  0  0  0
 14103  1  0  0  0  0
 14104  1  0  0  0  0
 15 16  1  0  0  0  0
 15105  1  0  0  0  0
 15106  1  0  0  0  0
 16 17  1  0  0  0  0
 16107  1  0  0  0  0
 16108  1  0  0  0  0
 17 18  1  0  0  0  0
 17109  1  0  0  0  0
 17110  1  0  0  0  0
 18 19  1  0  0  0  0
 18111  1  0  0  0  0
 18112  1  0  0  0  0
 19 20  1  0  0  0  0
 19113  1  0  0  0  0
 19114  1  0  0  0  0
 20 21  1  0  0  0  0
 20115  1  0  0  0  0
 20116  1  0  0  0  0
 21 22  1  0  0  0  0
 21117  1  0  0  0  0
 21118  1  0  0  0  0
 22 23  1  0  0  0  0
 22119  1  0  0  0  0
 22120  1  0  0  0  0
 23 24  1  0  0  0  0
 23121  1  0  0  0  0
 23122  1  0  0  0  0
 24 25  1  0  0  0  0
 24123  1  0  0  0  0
 24124  1  0  0  0  0
 25 26  1  0  0  0  0
 25125  1  0  0  0  0
 25126  1  0  0  0  0
 26 27  1  0  0  0  0
 26127  1  0  0  0  0
 26128  1  0  0  0  0
 27 28  1  0  0  0  0
 27129  1  0  0  0  0
 27130  1  0  0  0  0
 28 29  1  0  0  0  0
 28131  1  0  0  0  0
 28132  1  0  0  0  0
 29 30  1  0  0  0  0
 29133  1  0  0  0  0
 29134  1  0  0  0  0
 30 31  1  0  0  0  0
 30135  1  0  0  0  0
 30136  1  0  0  0  0
 31 32  1  0  0  0  0
 31137  1  0  0  0  0
 31138  1  0  0  0  0
 32 33  1  0  0  0  0
 32139  1  0  0  0  0
 32140  1  0  0  0  0
 33 34  1  0  0  0  0
 33141  1  0  0  0  0
 33142  1  0  0  0  0
 34 35  1  0  0  0  0
 34143  1  0  0  0  0
 34144  1  0  0  0  0
 35 36  1  0  0  0  0
 35145  1  0  0  0  0
 35146  1  0  0  0  0
 36 37  1  0  0  0  0
 36147  1  0  0  0  0
 36148  1  0  0  0  0
 37 38  1  0  0  0  0
 37149  1  0  0  0  0
 37150  1  0  0  0  0
 38 39  1  0  0  0  0
 38151  1  0  0  0  0
 38152  1  0  0  0  0
 39 40  1  0  0  0  0
 39153  1  0  0  0  0
 39154  1  0  0  0  0
 40 41  1  0  0  0  0
 40155  1  0  0  0  0
 40156  1  0  0  0  0
 41 42  1  0  0  0  0
 41157  1  0  0  0  0
 41158  1  0  0  0  0
 42 43  1  0  0  0  0
 42159  1  0  0  0  0
 42160  1  0  0  0  0
 43 44  1  0  0  0  0
 43161  1  0  0  0  0
 43162  1  0  0  0  0
 44 45  1  0  0  0  0
 44163  1  0  0  0  0
 44164  1  0  0  0  0
 45 46  1  0  0  0  0
 45165  1  0  0  0  0
 45166  1  0  0  0  0
 46 47  1  0  0  0  0
 46167  1  0  0  0  0
 46168  1  0  0  0  0
 47 48  1  0  0  0  0
 47169  1  0  0  0  0
 47170  1  0  0  0  0
 48 49  1  0  0  0  0
 48171  1  0  0  0  0
 48172  1  0  0  0  0
 49 50  1  0  0  0  0
 49173  1  0  0  0  0
 49174  1  0  0  0  0
 50 51  1  0  0  0  0
 50175  1  0  0  0  0
 50176  1  0  0  0  0
 51 52  1  0  0  0  0
 51177  1  0  0  0  0
 51178  1  0  0  0  0
 52 53  1  0  0  0  0
 52179  1  0  0  0  0
 52180  1  0  0  0  0
 53 54  1  0  0  0  0
 53181  1  0  0  0  0
 53182  1  0  0  0  0
 54 55  1  0  0  0  0
 54183  1  0  0  0  0
 54184  1  0  0  0  0
 55 56  1  0  0  0  0
 55185  1  0  0  0  0
 55186  1  0  0  0  0
 56 57  1  0  0  0  0
 56187  1  0  0  0  0
 56188  1  0  0  0  0
 57 58  1  0  0  0  0
 57189  1  0  0  0  0
 57190  1  0  0  0  0
 58 59  1  0  0  0  0
 58191  1  0  0  0  0
 58192  1  0  0  0  0
 59 60  1  0  0  0  0
 59193  1  0  0  0  0
 59194  1  0  0  0  0
 60 61  1  0  0  0  0
 60195  1  0  0  0  0
 60196  1  0  0  0  0
 61 62  1  0  0  0  0
 61197  1  0  0  0  0
 61198  1  0  0  0  0
 62 63  1  0  0  0  0
 62199  1  0  0  0  0
 62200  1  0  0  0  0
 63 64  1  0  0  0  0
 63201  1  0  0  0  0
 63202  1  0  0  0  0
 64 65  1  0  0  0  0
 64203  1  0  0  0  0
 64204  1  0  0  0  0
 65 66  1  0  0  0  0
 65205  1  0  0  0  0
 65206  1  0  0  0  0
 66 67  1  0  0  0  0
 66207  1  0  0  0  0
 66208  1  0  0  0  0
 67 68  1  0  0  0  0
 67209  1  0  0  0  0
 67210  1  0  0  0  0
 68 69  1  0  0  0  0
 68211  1  0  0  0  0
 68212  1  0  0  0  0
 69 70  1  0  0  0  0
 69213  1  0  0  0  0
 69214  1  0  0  0  0
 70 71  1  0  0  0  0
 70215  1  0  0  0  0
 70216  1  0  0  0  0
 71 72  1  0  0  0  0
 71217  1  0  0  0  0
 71218  1  0  0  0  0
 72 73  1  0  0  0  0
 72219  1  0  0  0  0
 72220  1  0  0  0  0
 73 74  1  0  0  0  0
 73221  1  0  0  0  0
 73222  1  0  0  0  0
 74 75  1  0  0  0  0
 74223  1  0  0  0  0
 74224  1  0  0  0  0
 75 76  1  0  0  0  0
 75225  1  0  0  0  0
 75226  1  0  0  0  0
 76 77  1  0  0  0  0
 76227  1  0  0  0  0
 76228  1  0  0  0  0
 77 78  1  0  0  0  0
 77229  1  0  0  0  0
 77230  1  0  0  0  0
 78 79  1  0  0  0  0
 78231  1  0  0  0  0
 78232  1  0  0  0  0
 79 80  1  0  0  0  0
 79233  1  0  0  0  0
 79234  1  0  0  0  0
 80235  1  0  0  0  0
 80236  1  0  0  0  0
 80237  1  0  0  0  0
M  END
$$$$
