
 OpenBabel04232216483D

 55 56  0  0  1  0  0  0  0  0999 V2000
    4.9169   -2.5271    3.0001 C   0  0  0  0  0  0  0  0  0  0  0  0
    5.6658   -2.9044    1.7090 C   0  0  0  0  0  0  0  0  0  0  0  0
    4.9426   -2.2681    0.7535 C   0  0  0  0  0  0  0  0  0  0  0  0
    5.1427   -1.8713   -0.5847 C   0  0  0  0  0  0  0  0  0  0  0  0
    5.3729   -2.8518   -1.4720 C   0  0  0  0  0  0  0  0  0  0  0  0
    4.7216   -4.2071   -1.3636 C   0  0  0  0  0  0  0  0  0  0  0  0
    3.1917   -4.1689   -1.3413 C   0  0  0  0  0  0  0  0  0  0  0  0
    6.8050   -2.6712   -1.9331 C   0  0  0  0  0  0  0  0  0  0  0  0
    7.5177   -3.9835   -1.8575 C   0  0  0  0  0  0  0  0  0  0  0  0
    8.9882   -3.6806   -1.7104 C   0  0  0  0  0  0  0  0  0  0  0  0
    9.7016   -4.9377   -2.1212 C   0  0  0  0  0  0  0  0  0  0  0  0
   11.0595   -4.8889   -1.4960 C   0  0  0  0  0  0  0  0  0  0  0  0
   12.0273   -4.2829   -1.9907 O   0  0  0  0  0  0  0  0  0  0  0  0
   11.1157   -5.5962   -0.2255 C   0  0  0  0  0  0  0  0  0  0  0  0
   10.3683   -5.0065    0.9134 C   0  0  0  0  0  0  0  0  0  0  0  0
    9.2161   -5.6303    1.2817 C   0  0  0  0  0  0  0  0  0  0  0  0
    9.5212   -7.2313    1.4027 C   0  0  0  0  0  0  0  0  0  0  0  0
   10.5371   -7.9559    0.3127 C   0  0  3  0  0  0  0  0  0  0  0  0
    9.8650   -8.9113   -0.5857 O   0  0  0  0  0  0  0  0  0  0  0  0
   10.9093   -9.5452   -1.4921 O   0  0  0  0  0  0  0  0  0  0  0  0
   10.3400  -10.7581   -2.0385 C   0  0  0  0  0  0  0  0  0  0  0  0
   11.0602  -11.2892   -3.2937 C   0  0  0  0  0  0  0  0  0  0  0  0
   11.2253   -6.9173   -0.4985 C   0  0  0  0  0  0  0  0  0  0  0  0
    7.8035   -4.7638    1.6088 C   0  0  0  0  0  0  0  0  0  0  0  0
    7.1304   -3.5192    1.7762 C   0  0  0  0  0  0  0  0  0  0  0  0
    3.9710   -3.0768    3.0823 H   0  0  0  0  0  0  0  0  0  0  0  0
    4.6112   -1.4547    2.9737 H   0  0  0  0  0  0  0  0  0  0  0  0
    5.5034   -2.6183    3.9108 H   0  0  0  0  0  0  0  0  0  0  0  0
    3.9602   -1.8149    1.0171 H   0  0  0  0  0  0  0  0  0  0  0  0
    5.5651   -0.8807   -0.7117 H   0  0  0  0  0  0  0  0  0  0  0  0
    5.0455   -4.6898   -0.4322 H   0  0  0  0  0  0  0  0  0  0  0  0
    5.0317   -4.8562   -2.1826 H   0  0  0  0  0  0  0  0  0  0  0  0
    2.7904   -3.5524   -0.5297 H   0  0  0  0  0  0  0  0  0  0  0  0
    2.8034   -5.1826   -1.1892 H   0  0  0  0  0  0  0  0  0  0  0  0
    2.8015   -3.7883   -2.2879 H   0  0  0  0  0  0  0  0  0  0  0  0
    7.3249   -2.0150   -1.2048 H   0  0  0  0  0  0  0  0  0  0  0  0
    6.9002   -2.1779   -2.8936 H   0  0  0  0  0  0  0  0  0  0  0  0
    7.3064   -4.5596   -2.7581 H   0  0  0  0  0  0  0  0  0  0  0  0
    7.2149   -4.6040   -1.0024 H   0  0  0  0  0  0  0  0  0  0  0  0
    9.1889   -3.3789   -0.6812 H   0  0  0  0  0  0  0  0  0  0  0  0
    9.3200   -2.8391   -2.3179 H   0  0  0  0  0  0  0  0  0  0  0  0
    9.7254   -5.0787   -3.1968 H   0  0  0  0  0  0  0  0  0  0  0  0
    9.1553   -5.8082   -1.7130 H   0  0  0  0  0  0  0  0  0  0  0  0
   11.1639   -5.0296    1.6855 H   0  0  0  0  0  0  0  0  0  0  0  0
    8.6323   -7.8368    1.5781 H   0  0  0  0  0  0  0  0  0  0  0  0
   10.1228   -7.3038    2.3314 H   0  0  0  0  0  0  0  0  0  0  0  0
   11.3034   -8.5412    0.8431 H   0  0  0  0  0  0  0  0  0  0  0  0
    9.2936  -10.5838   -2.3039 H   0  0  0  0  0  0  0  0  0  0  0  0
   10.3918  -11.5360   -1.2706 H   0  0  0  0  0  0  0  0  0  0  0  0
   11.0342  -10.5717   -4.1213 H   0  0  0  0  0  0  0  0  0  0  0  0
   10.5796  -12.2127   -3.6510 H   0  0  0  0  0  0  0  0  0  0  0  0
   12.1133  -11.5268   -3.1060 H   0  0  0  0  0  0  0  0  0  0  0  0
   11.6194   -7.2338   -1.4697 H   0  0  0  0  0  0  0  0  0  0  0  0
    8.4979   -4.4756    2.4507 H   0  0  0  0  0  0  0  0  0  0  0  0
    7.6977   -2.7315    2.2966 H   0  0  0  0  0  0  0  0  0  0  0  0
  1  2  1  0  0  0  0
  1 26  1  0  0  0  0
  1 27  1  0  0  0  0
  1 28  1  0  0  0  0
  2  3  2  3  0  0  0
  2 25  1  0  0  0  0
  3  4  1  0  0  0  0
  3 29  1  0  0  0  0
  4  5  2  3  0  0  0
  4 30  1  0  0  0  0
  5  6  1  0  0  0  0
  5  8  1  0  0  0  0
  6  7  1  0  0  0  0
  6 31  1  0  0  0  0
  6 32  1  0  0  0  0
  7 33  1  0  0  0  0
  7 34  1  0  0  0  0
  7 35  1  0  0  0  0
  8  9  1  0  0  0  0
  8 36  1  0  0  0  0
  8 37  1  0  0  0  0
  9 10  1  0  0  0  0
  9 38  1  0  0  0  0
  9 39  1  0  0  0  0
 10 11  1  0  0  0  0
 10 40  1  0  0  0  0
 10 41  1  0  0  0  0
 11 12  1  0  0  0  0
 11 42  1  0  0  0  0
 11 43  1  0  0  0  0
 12 13  2  0  0  0  0
 12 14  1  0  0  0  0
 14 15  1  0  0  0  0
 14 23  2  0  0  0  0
 15 16  2  0  0  0  0
 15 44  1  0  0  0  0
 16 17  1  0  0  0  0
 16 24  1  0  0  0  0
 17 18  1  0  0  0  0
 17 45  1  0  0  0  0
 17 46  1  0  0  0  0
 18 19  1  0  0  0  0
 18 23  1  0  0  0  0
 18 47  1  0  0  0  0
 19 20  1  0  0  0  0
 20 21  1  0  0  0  0
 21 22  1  0  0  0  0
 21 48  1  0  0  0  0
 21 49  1  0  0  0  0
 22 50  1  0  0  0  0
 22 51  1  0  0  0  0
 22 52  1  0  0  0  0
 23 53  1  0  0  0  0
 24 25  2  3  0  0  0
 24 54  1  0  0  0  0
 25 55  1  0  0  0  0
M  END
$$$$
