
 OpenBabel04232216493D

 61 62  0  0  1  0  0  0  0  0999 V2000
    6.5404    3.7852   -0.9273 C   0  0  0  0  0  0  0  0  0  0  0  0
    7.3921    4.0455    0.4482 C   0  0  3  0  0  0  0  0  0  0  0  0
    6.1270    3.9274    1.3686 C   0  0  0  0  0  0  0  0  0  0  0  0
    5.4757    2.7579    1.6295 C   0  0  0  0  0  0  0  0  0  0  0  0
    4.8883    2.4999    2.9975 C   0  0  0  0  0  0  0  0  0  0  0  0
    6.1618    2.2287    3.7884 C   0  0  0  0  0  0  0  0  0  0  0  0
    6.7129    3.5245    4.2459 C   0  0  0  0  0  0  0  0  0  0  0  0
    8.0089    3.7227    3.9830 C   0  0  0  0  0  0  0  0  0  0  0  0
    8.8393    4.8774    4.4558 C   0  0  0  0  0  0  0  0  0  0  0  0
   10.1665    4.1677    4.6228 C   0  0  0  0  0  0  0  0  0  0  0  0
   10.9369    4.6108    5.7554 N   0  0  0  0  0  0  0  0  0  0  0  0
   12.2745    4.3087    5.5366 C   0  0  0  0  0  0  0  0  0  0  0  0
   12.7409    3.1862    5.7278 O   0  0  0  0  0  0  0  0  0  0  0  0
   12.9312    5.2535    4.5549 C   0  0  0  0  0  0  0  0  0  0  0  0
   12.3363    6.4840    4.5612 C   0  0  0  0  0  0  0  0  0  0  0  0
   11.1914    6.7940    3.6338 C   0  0  0  0  0  0  0  0  0  0  0  0
   11.3540    6.6701    2.2955 C   0  0  0  0  0  0  0  0  0  0  0  0
   12.9499    7.4733    2.0427 C   0  0  0  0  0  0  0  0  0  0  0  0
   14.4476    7.8285    3.0784 C   0  0  0  0  0  0  0  0  0  0  0  0
   15.9672    7.1099    3.2215 C   0  0  0  0  0  0  0  0  0  0  0  0
   15.7346    5.6617    3.4444 C   0  0  0  0  0  0  0  0  0  0  0  0
   16.0540    4.2499    3.0743 C   0  0  0  0  0  0  0  0  0  0  0  0
   14.6190    3.5803    3.0438 C   0  0  0  0  0  0  0  0  0  0  0  0
   13.3206    4.4742    3.2716 C   0  0  0  0  0  0  0  0  0  0  0  0
   10.0786    5.8409    1.3201 C   0  0  0  0  0  0  0  0  0  0  0  0
    8.7379    5.2193    1.0063 C   0  0  0  0  0  0  0  0  0  0  0  0
    5.6917    3.0675   -0.7568 H   0  0  0  0  0  0  0  0  0  0  0  0
    7.0663    3.2239   -1.7052 H   0  0  0  0  0  0  0  0  0  0  0  0
    5.9842    4.6446   -1.3191 H   0  0  0  0  0  0  0  0  0  0  0  0
    7.9072    3.0780    0.5774 H   0  0  0  0  0  0  0  0  0  0  0  0
    5.6275    4.8355    1.7009 H   0  0  0  0  0  0  0  0  0  0  0  0
    5.7403    1.8131    1.1395 H   0  0  0  0  0  0  0  0  0  0  0  0
    4.2509    1.6084    3.0183 H   0  0  0  0  0  0  0  0  0  0  0  0
    4.3071    3.3449    3.3846 H   0  0  0  0  0  0  0  0  0  0  0  0
    6.8872    1.7257    3.1206 H   0  0  0  0  0  0  0  0  0  0  0  0
    6.0528    1.5517    4.6310 H   0  0  0  0  0  0  0  0  0  0  0  0
    6.1223    4.3399    4.6161 H   0  0  0  0  0  0  0  0  0  0  0  0
    8.5489    2.9668    3.4267 H   0  0  0  0  0  0  0  0  0  0  0  0
    8.4401    5.1834    5.3820 H   0  0  0  0  0  0  0  0  0  0  0  0
    8.8127    5.6376    3.7474 H   0  0  0  0  0  0  0  0  0  0  0  0
   10.6781    4.3186    3.6694 H   0  0  0  0  0  0  0  0  0  0  0  0
   10.1280    3.0800    4.7045 H   0  0  0  0  0  0  0  0  0  0  0  0
   10.7553    5.5878    5.9298 H   0  0  0  0  0  0  0  0  0  0  0  0
   12.3370    7.0974    5.4706 H   0  0  0  0  0  0  0  0  0  0  0  0
   10.8414    7.7969    3.9355 H   0  0  0  0  0  0  0  0  0  0  0  0
   12.5645    8.4993    2.2156 H   0  0  0  0  0  0  0  0  0  0  0  0
   13.2409    7.4509    0.9996 H   0  0  0  0  0  0  0  0  0  0  0  0
   14.7211    8.8594    2.8245 H   0  0  0  0  0  0  0  0  0  0  0  0
   14.1321    7.8995    4.1247 H   0  0  0  0  0  0  0  0  0  0  0  0
   16.4648    7.4949    4.1359 H   0  0  0  0  0  0  0  0  0  0  0  0
   16.6637    7.3402    2.4087 H   0  0  0  0  0  0  0  0  0  0  0  0
   15.0605    5.7282    2.6083 H   0  0  0  0  0  0  0  0  0  0  0  0
   15.3559    5.5900    4.4639 H   0  0  0  0  0  0  0  0  0  0  0  0
   16.7031    3.7268    3.7894 H   0  0  0  0  0  0  0  0  0  0  0  0
   16.5406    4.1575    2.0926 H   0  0  0  0  0  0  0  0  0  0  0  0
   14.5873    2.6939    3.6790 H   0  0  0  0  0  0  0  0  0  0  0  0
   14.4998    3.2312    2.0080 H   0  0  0  0  0  0  0  0  0  0  0  0
   12.4805    3.8538    2.9763 H   0  0  0  0  0  0  0  0  0  0  0  0
   13.3559    5.2104    2.4731 H   0  0  0  0  0  0  0  0  0  0  0  0
    9.5058    6.7256    1.7270 H   0  0  0  0  0  0  0  0  0  0  0  0
    9.1722    4.7888    0.0662 H   0  0  0  0  0  0  0  0  0  0  0  0
  1  2  1  0  0  0  0
  1 27  1  0  0  0  0
  1 28  1  0  0  0  0
  1 29  1  0  0  0  0
  2  3  1  0  0  0  0
  2 26  1  0  0  0  0
  2 30  1  0  0  0  0
  3  4  2  3  0  0  0
  3 31  1  0  0  0  0
  4  5  1  0  0  0  0
  4 32  1  0  0  0  0
  5  6  1  0  0  0  0
  5 33  1  0  0  0  0
  5 34  1  0  0  0  0
  6  7  1  0  0  0  0
  6 35  1  0  0  0  0
  6 36  1  0  0  0  0
  7  8  2  3  0  0  0
  7 37  1  0  0  0  0
  8  9  1  0  0  0  0
  8 38  1  0  0  0  0
  9 10  1  0  0  0  0
  9 39  1  0  0  0  0
  9 40  1  0  0  0  0
 10 11  1  0  0  0  0
 10 41  1  0  0  0  0
 10 42  1  0  0  0  0
 11 12  1  0  0  0  0
 11 43  1  0  0  0  0
 12 13  2  0  0  0  0
 12 14  1  0  0  0  0
 14 15  2  3  0  0  0
 14 24  1  0  0  0  0
 15 16  1  0  0  0  0
 15 44  1  0  0  0  0
 16 17  2  3  0  0  0
 16 45  1  0  0  0  0
 17 18  1  0  0  0  0
 17 25  1  0  0  0  0
 18 19  1  0  0  0  0
 18 46  1  0  0  0  0
 18 47  1  0  0  0  0
 19 20  1  0  0  0  0
 19 48  1  0  0  0  0
 19 49  1  0  0  0  0
 20 21  1  0  0  0  0
 20 50  1  0  0  0  0
 20 51  1  0  0  0  0
 21 22  1  0  0  0  0
 21 52  1  0  0  0  0
 21 53  1  0  0  0  0
 22 23  1  0  0  0  0
 22 54  1  0  0  0  0
 22 55  1  0  0  0  0
 23 24  1  0  0  0  0
 23 56  1  0  0  0  0
 23 57  1  0  0  0  0
 24 58  1  0  0  0  0
 24 59  1  0  0  0  0
 25 26  2  3  0  0  0
 25 60  1  0  0  0  0
 26 61  1  0  0  0  0
M  END
$$$$
