
 OpenBabel04232217003D

230229  0  0  0  0  0  0  0  0999 V2000
    1.0706    0.1579    0.0565 O   0  0  0  0  0  0  0  0  0  0  0  0
    2.4455    0.0814    0.0652 C   0  0  0  0  0  0  0  0  0  0  0  0
    3.0470   -1.1012    0.2625 C   0  0  0  0  0  0  0  0  0  0  0  0
    3.1631    1.3825   -0.1561 C   0  0  0  0  0  0  0  0  0  0  0  0
    4.5747    1.1678   -0.1242 O   0  0  0  0  0  0  0  0  0  0  0  0
    5.2795    2.3767   -0.3299 C   0  0  0  0  0  0  0  0  0  0  0  0
    6.7690    2.0812   -0.2846 C   0  0  0  0  0  0  0  0  0  0  0  0
    7.5554    3.3638   -0.5009 C   0  0  0  0  0  0  0  0  0  0  0  0
    9.0500    3.0966   -0.4624 C   0  0  0  0  0  0  0  0  0  0  0  0
    9.8151    4.3918   -0.6807 C   0  0  0  0  0  0  0  0  0  0  0  0
   11.3094    4.1267   -0.6406 C   0  0  0  0  0  0  0  0  0  0  0  0
   12.0729    5.4198   -0.8606 C   0  0  0  0  0  0  0  0  0  0  0  0
   13.5658    5.1511   -0.8219 C   0  0  0  0  0  0  0  0  0  0  0  0
   14.3290    6.4439   -1.0398 C   0  0  0  0  0  0  0  0  0  0  0  0
   15.8213    6.1748   -0.9990 C   0  0  0  0  0  0  0  0  0  0  0  0
   16.5840    7.4676   -1.2168 C   0  0  0  0  0  0  0  0  0  0  0  0
   18.0761    7.1986   -1.1740 C   0  0  0  0  0  0  0  0  0  0  0  0
   18.8386    8.4918   -1.3899 C   0  0  0  0  0  0  0  0  0  0  0  0
   20.3306    8.2231   -1.3450 C   0  0  0  0  0  0  0  0  0  0  0  0
   21.0930    9.5159   -1.5629 C   0  0  0  0  0  0  0  0  0  0  0  0
   22.5850    9.2475   -1.5161 C   0  0  0  0  0  0  0  0  0  0  0  0
   23.3474   10.5400   -1.7359 C   0  0  0  0  0  0  0  0  0  0  0  0
   24.8394   10.2720   -1.6871 C   0  0  0  0  0  0  0  0  0  0  0  0
   25.6018   11.5648   -1.9050 C   0  0  0  0  0  0  0  0  0  0  0  0
   27.0938   11.2964   -1.8581 C   0  0  0  0  0  0  0  0  0  0  0  0
   27.8562   12.5892   -2.0760 C   0  0  0  0  0  0  0  0  0  0  0  0
   29.3482   12.3212   -2.0272 C   0  0  0  0  0  0  0  0  0  0  0  0
   30.1106   13.6140   -2.2451 C   0  0  0  0  0  0  0  0  0  0  0  0
   31.6026   13.3459   -2.1962 C   0  0  0  0  0  0  0  0  0  0  0  0
   32.3650   14.6388   -2.4141 C   0  0  0  0  0  0  0  0  0  0  0  0
   33.8570   14.3710   -2.3633 C   0  0  0  0  0  0  0  0  0  0  0  0
   34.6194   15.6639   -2.5812 C   0  0  0  0  0  0  0  0  0  0  0  0
   36.1114   15.3961   -2.5303 C   0  0  0  0  0  0  0  0  0  0  0  0
   36.8738   16.6890   -2.7483 C   0  0  0  0  0  0  0  0  0  0  0  0
   38.3658   16.4209   -2.6994 C   0  0  0  0  0  0  0  0  0  0  0  0
   39.1282   17.7134   -2.9193 C   0  0  0  0  0  0  0  0  0  0  0  0
   40.6202   17.4450   -2.8724 C   0  0  0  0  0  0  0  0  0  0  0  0
   41.3826   18.7378   -3.0904 C   0  0  0  0  0  0  0  0  0  0  0  0
   42.8746   18.4691   -3.0455 C   0  0  0  0  0  0  0  0  0  0  0  0
   43.6371   19.7622   -3.2614 C   0  0  0  0  0  0  0  0  0  0  0  0
   45.1290   19.4935   -3.2165 C   0  0  0  0  0  0  0  0  0  0  0  0
   45.8915   20.7867   -3.4324 C   0  0  0  0  0  0  0  0  0  0  0  0
   47.3834   20.5179   -3.3876 C   0  0  0  0  0  0  0  0  0  0  0  0
   48.1459   21.8111   -3.6035 C   0  0  0  0  0  0  0  0  0  0  0  0
   49.6378   21.5424   -3.5586 C   0  0  0  0  0  0  0  0  0  0  0  0
   50.4003   22.8355   -3.7745 C   0  0  0  0  0  0  0  0  0  0  0  0
   51.8922   22.5668   -3.7296 C   0  0  0  0  0  0  0  0  0  0  0  0
   52.6547   23.8599   -3.9456 C   0  0  0  0  0  0  0  0  0  0  0  0
   54.1466   23.5915   -3.8987 C   0  0  0  0  0  0  0  0  0  0  0  0
   54.9091   24.8844   -4.1166 C   0  0  0  0  0  0  0  0  0  0  0  0
   56.4011   24.6163   -4.0678 C   0  0  0  0  0  0  0  0  0  0  0  0
   57.1635   25.9091   -4.2857 C   0  0  0  0  0  0  0  0  0  0  0  0
   58.6555   25.6407   -4.2388 C   0  0  0  0  0  0  0  0  0  0  0  0
   59.4179   26.9339   -4.4547 C   0  0  0  0  0  0  0  0  0  0  0  0
   60.9099   26.6658   -4.4059 C   0  0  0  0  0  0  0  0  0  0  0  0
   61.6723   27.9590   -4.6217 C   0  0  0  0  0  0  0  0  0  0  0  0
   63.1643   27.6906   -4.5749 C   0  0  0  0  0  0  0  0  0  0  0  0
   63.9267   28.9837   -4.7908 C   0  0  0  0  0  0  0  0  0  0  0  0
   65.4187   28.7153   -4.7439 C   0  0  0  0  0  0  0  0  0  0  0  0
   66.1811   30.0085   -4.9598 C   0  0  0  0  0  0  0  0  0  0  0  0
   67.6731   29.7401   -4.9130 C   0  0  0  0  0  0  0  0  0  0  0  0
   68.4355   31.0332   -5.1289 C   0  0  0  0  0  0  0  0  0  0  0  0
   69.9275   30.7648   -5.0820 C   0  0  0  0  0  0  0  0  0  0  0  0
   70.6899   32.0580   -5.2980 C   0  0  0  0  0  0  0  0  0  0  0  0
   72.1819   31.7896   -5.2511 C   0  0  0  0  0  0  0  0  0  0  0  0
   72.9444   33.0828   -5.4670 C   0  0  0  0  0  0  0  0  0  0  0  0
   74.4364   32.8148   -5.4182 C   0  0  0  0  0  0  0  0  0  0  0  0
   75.1989   34.1080   -5.6341 C   0  0  0  0  0  0  0  0  0  0  0  0
   76.6911   33.8399   -5.5852 C   0  0  0  0  0  0  0  0  0  0  0  0
   77.4539   35.1331   -5.8011 C   0  0  0  0  0  0  0  0  0  0  0  0
   78.9465   34.8651   -5.7523 C   0  0  0  0  0  0  0  0  0  0  0  0
   79.7099   36.1586   -5.9683 C   0  0  0  0  0  0  0  0  0  0  0  0
   81.2034   35.8919   -5.9217 C   0  0  0  0  0  0  0  0  0  0  0  0
   81.9688   37.1860   -6.1377 C   0  0  0  0  0  0  0  0  0  0  0  0
   83.4644   36.9206   -6.0914 C   0  0  0  0  0  0  0  0  0  0  0  0
   84.2344   38.2137   -6.3093 C   0  0  0  0  0  0  0  0  0  0  0  0
   85.7344   37.9565   -6.2664 C   0  0  0  0  0  0  0  0  0  0  0  0
   86.4996   39.2471   -6.4839 C   0  0  0  0  0  0  0  0  0  0  0  0
    0.7476   -0.7489    0.2101 H   0  0  0  0  0  0  0  0  0  0  0  0
    2.4787   -2.0054    0.4165 H   0  0  0  0  0  0  0  0  0  0  0  0
    4.1296   -1.1699    0.2708 H   0  0  0  0  0  0  0  0  0  0  0  0
    2.8846    2.0922    0.6314 H   0  0  0  0  0  0  0  0  0  0  0  0
    2.8793    1.7955   -1.1309 H   0  0  0  0  0  0  0  0  0  0  0  0
    5.0177    3.0949    0.4555 H   0  0  0  0  0  0  0  0  0  0  0  0
    5.0124    2.7984   -1.3056 H   0  0  0  0  0  0  0  0  0  0  0  0
    7.0271    1.3375   -1.0493 H   0  0  0  0  0  0  0  0  0  0  0  0
    7.0319    1.6261    0.6788 H   0  0  0  0  0  0  0  0  0  0  0  0
    7.2914    4.0951    0.2731 H   0  0  0  0  0  0  0  0  0  0  0  0
    7.2846    3.8058   -1.4679 H   0  0  0  0  0  0  0  0  0  0  0  0
    9.3206    2.3701   -1.2382 H   0  0  0  0  0  0  0  0  0  0  0  0
    9.3275    2.6597    0.5045 H   0  0  0  0  0  0  0  0  0  0  0  0
    9.5459    5.1214    0.0932 H   0  0  0  0  0  0  0  0  0  0  0  0
    9.5410    4.8306   -1.6482 H   0  0  0  0  0  0  0  0  0  0  0  0
   11.5804    3.3977   -1.4142 H   0  0  0  0  0  0  0  0  0  0  0  0
   11.5856    3.6909    0.3274 H   0  0  0  0  0  0  0  0  0  0  0  0
   11.8048    6.1493   -0.0864 H   0  0  0  0  0  0  0  0  0  0  0  0
   11.7976    5.8574   -1.8281 H   0  0  0  0  0  0  0  0  0  0  0  0
   13.8352    4.4231   -1.5971 H   0  0  0  0  0  0  0  0  0  0  0  0
   13.8421    4.7127    0.1451 H   0  0  0  0  0  0  0  0  0  0  0  0
   14.0594    7.1727   -0.2654 H   0  0  0  0  0  0  0  0  0  0  0  0
   14.0546    6.8819   -2.0074 H   0  0  0  0  0  0  0  0  0  0  0  0
   16.0915    5.4462   -1.7733 H   0  0  0  0  0  0  0  0  0  0  0  0
   16.0962    5.7370   -0.0314 H   0  0  0  0  0  0  0  0  0  0  0  0
   16.3131    8.1967   -0.4433 H   0  0  0  0  0  0  0  0  0  0  0  0
   16.3104    7.9048   -2.1851 H   0  0  0  0  0  0  0  0  0  0  0  0
   18.3474    6.4706   -1.9485 H   0  0  0  0  0  0  0  0  0  0  0  0
   18.3495    6.7603   -0.2063 H   0  0  0  0  0  0  0  0  0  0  0  0
   18.5663    9.2203   -0.6162 H   0  0  0  0  0  0  0  0  0  0  0  0
   18.5662    8.9295   -2.3582 H   0  0  0  0  0  0  0  0  0  0  0  0
   20.6027    7.4935   -2.1177 H   0  0  0  0  0  0  0  0  0  0  0  0
   20.6031    7.7868   -0.3761 H   0  0  0  0  0  0  0  0  0  0  0  0
   20.8199   10.2460   -0.7911 H   0  0  0  0  0  0  0  0  0  0  0  0
   20.8215    9.9515   -2.5324 H   0  0  0  0  0  0  0  0  0  0  0  0
   22.8580    8.5164   -2.2870 H   0  0  0  0  0  0  0  0  0  0  0  0
   22.8566    8.8133   -0.5460 H   0  0  0  0  0  0  0  0  0  0  0  0
   23.0734   11.2717   -0.9658 H   0  0  0  0  0  0  0  0  0  0  0  0
   23.0768   10.9735   -2.7066 H   0  0  0  0  0  0  0  0  0  0  0  0
   25.1136    9.5414   -2.4581 H   0  0  0  0  0  0  0  0  0  0  0  0
   25.1099    9.8372   -0.7169 H   0  0  0  0  0  0  0  0  0  0  0  0
   25.3286   12.2948   -1.1332 H   0  0  0  0  0  0  0  0  0  0  0  0
   25.3304   12.0004   -2.8746 H   0  0  0  0  0  0  0  0  0  0  0  0
   27.3670   10.5663   -2.6300 H   0  0  0  0  0  0  0  0  0  0  0  0
   27.3652   10.8608   -0.8886 H   0  0  0  0  0  0  0  0  0  0  0  0
   27.5820   13.3198   -1.3050 H   0  0  0  0  0  0  0  0  0  0  0  0
   27.5858   13.0240   -3.0462 H   0  0  0  0  0  0  0  0  0  0  0  0
   29.6225   11.5906   -2.7982 H   0  0  0  0  0  0  0  0  0  0  0  0
   29.6186   11.8864   -1.0570 H   0  0  0  0  0  0  0  0  0  0  0  0
   29.8364   14.3445   -1.4741 H   0  0  0  0  0  0  0  0  0  0  0  0
   29.8402   14.0488   -3.2153 H   0  0  0  0  0  0  0  0  0  0  0  0
   31.8769   12.6154   -2.9672 H   0  0  0  0  0  0  0  0  0  0  0  0
   31.8730   12.9111   -1.2261 H   0  0  0  0  0  0  0  0  0  0  0  0
   32.0897   15.3698   -1.6440 H   0  0  0  0  0  0  0  0  0  0  0  0
   32.0957   15.0728   -3.3849 H   0  0  0  0  0  0  0  0  0  0  0  0
   34.1323   13.6400   -3.1335 H   0  0  0  0  0  0  0  0  0  0  0  0
   34.1263   13.9370   -1.3925 H   0  0  0  0  0  0  0  0  0  0  0  0
   34.3441   16.3949   -1.8110 H   0  0  0  0  0  0  0  0  0  0  0  0
   34.3501   16.0979   -3.5520 H   0  0  0  0  0  0  0  0  0  0  0  0
   36.3867   14.6651   -3.3005 H   0  0  0  0  0  0  0  0  0  0  0  0
   36.3808   14.9621   -1.5596 H   0  0  0  0  0  0  0  0  0  0  0  0
   36.5996   17.4196   -1.9773 H   0  0  0  0  0  0  0  0  0  0  0  0
   36.6034   17.1238   -3.7184 H   0  0  0  0  0  0  0  0  0  0  0  0
   38.6398   15.6893   -3.4695 H   0  0  0  0  0  0  0  0  0  0  0  0
   38.6364   15.9874   -1.7287 H   0  0  0  0  0  0  0  0  0  0  0  0
   38.8552   18.4445   -2.1484 H   0  0  0  0  0  0  0  0  0  0  0  0
   38.8566   18.1476   -3.8894 H   0  0  0  0  0  0  0  0  0  0  0  0
   40.8934   16.7149   -3.6443 H   0  0  0  0  0  0  0  0  0  0  0  0
   40.8917   17.0095   -1.9029 H   0  0  0  0  0  0  0  0  0  0  0  0
   41.1105   19.4674   -2.3176 H   0  0  0  0  0  0  0  0  0  0  0  0
   41.1101   19.1742   -4.0592 H   0  0  0  0  0  0  0  0  0  0  0  0
   43.1469   17.7406   -3.8191 H   0  0  0  0  0  0  0  0  0  0  0  0
   43.1470   18.0315   -2.0771 H   0  0  0  0  0  0  0  0  0  0  0  0
   43.3647   20.4907   -2.4877 H   0  0  0  0  0  0  0  0  0  0  0  0
   43.3647   20.1999   -4.2297 H   0  0  0  0  0  0  0  0  0  0  0  0
   45.4014   18.7650   -3.9902 H   0  0  0  0  0  0  0  0  0  0  0  0
   45.4014   19.0559   -2.2482 H   0  0  0  0  0  0  0  0  0  0  0  0
   45.6191   21.5152   -2.6588 H   0  0  0  0  0  0  0  0  0  0  0  0
   45.6191   21.2243   -4.4008 H   0  0  0  0  0  0  0  0  0  0  0  0
   47.6558   19.7894   -4.1612 H   0  0  0  0  0  0  0  0  0  0  0  0
   47.6558   20.0803   -2.4192 H   0  0  0  0  0  0  0  0  0  0  0  0
   47.8735   22.5396   -2.8298 H   0  0  0  0  0  0  0  0  0  0  0  0
   47.8735   22.2487   -4.5718 H   0  0  0  0  0  0  0  0  0  0  0  0
   49.9102   20.8139   -4.3323 H   0  0  0  0  0  0  0  0  0  0  0  0
   49.9102   21.1047   -2.5902 H   0  0  0  0  0  0  0  0  0  0  0  0
   50.1279   23.5640   -3.0009 H   0  0  0  0  0  0  0  0  0  0  0  0
   50.1279   23.2732   -4.7429 H   0  0  0  0  0  0  0  0  0  0  0  0
   52.1646   21.8383   -4.5033 H   0  0  0  0  0  0  0  0  0  0  0  0
   52.1646   22.1291   -2.7613 H   0  0  0  0  0  0  0  0  0  0  0  0
   52.3813   24.5889   -3.1727 H   0  0  0  0  0  0  0  0  0  0  0  0
   52.3834   24.2968   -4.9145 H   0  0  0  0  0  0  0  0  0  0  0  0
   54.4199   22.8615   -4.6706 H   0  0  0  0  0  0  0  0  0  0  0  0
   54.4181   23.1560   -2.9292 H   0  0  0  0  0  0  0  0  0  0  0  0
   54.6349   25.6149   -3.3455 H   0  0  0  0  0  0  0  0  0  0  0  0
   54.6387   25.3192   -5.0867 H   0  0  0  0  0  0  0  0  0  0  0  0
   56.6753   23.8857   -4.8388 H   0  0  0  0  0  0  0  0  0  0  0  0
   56.6715   24.1815   -3.0976 H   0  0  0  0  0  0  0  0  0  0  0  0
   56.8902   26.6392   -3.5138 H   0  0  0  0  0  0  0  0  0  0  0  0
   56.8921   26.3447   -5.2552 H   0  0  0  0  0  0  0  0  0  0  0  0
   58.9289   24.9117   -5.0116 H   0  0  0  0  0  0  0  0  0  0  0  0
   58.9267   25.2038   -3.2698 H   0  0  0  0  0  0  0  0  0  0  0  0
   59.1435   27.6634   -3.6827 H   0  0  0  0  0  0  0  0  0  0  0  0
   59.1477   27.3700   -5.4243 H   0  0  0  0  0  0  0  0  0  0  0  0
   61.1843   25.9363   -5.1778 H   0  0  0  0  0  0  0  0  0  0  0  0
   61.1801   26.2297   -3.4362 H   0  0  0  0  0  0  0  0  0  0  0  0
   61.3989   28.6879   -3.8489 H   0  0  0  0  0  0  0  0  0  0  0  0
   61.4011   28.3959   -5.5907 H   0  0  0  0  0  0  0  0  0  0  0  0
   63.4377   26.9616   -5.3477 H   0  0  0  0  0  0  0  0  0  0  0  0
   63.4355   27.2537   -3.6059 H   0  0  0  0  0  0  0  0  0  0  0  0
   63.6533   29.7127   -4.0180 H   0  0  0  0  0  0  0  0  0  0  0  0
   63.6555   29.4206   -5.7598 H   0  0  0  0  0  0  0  0  0  0  0  0
   65.6921   27.9863   -5.5167 H   0  0  0  0  0  0  0  0  0  0  0  0
   65.6899   28.2784   -3.7749 H   0  0  0  0  0  0  0  0  0  0  0  0
   65.9077   30.7375   -4.1870 H   0  0  0  0  0  0  0  0  0  0  0  0
   65.9099   30.4454   -5.9288 H   0  0  0  0  0  0  0  0  0  0  0  0
   67.9465   29.0111   -5.6858 H   0  0  0  0  0  0  0  0  0  0  0  0
   67.9443   29.3032   -3.9440 H   0  0  0  0  0  0  0  0  0  0  0  0
   68.1621   31.7622   -4.3561 H   0  0  0  0  0  0  0  0  0  0  0  0
   68.1643   31.4701   -6.0979 H   0  0  0  0  0  0  0  0  0  0  0  0
   70.2009   30.0358   -5.8548 H   0  0  0  0  0  0  0  0  0  0  0  0
   70.1987   30.3279   -4.1130 H   0  0  0  0  0  0  0  0  0  0  0  0
   70.4165   32.7870   -4.5251 H   0  0  0  0  0  0  0  0  0  0  0  0
   70.4187   32.4949   -6.2669 H   0  0  0  0  0  0  0  0  0  0  0  0
   72.4554   31.0606   -6.0239 H   0  0  0  0  0  0  0  0  0  0  0  0
   72.4531   31.3527   -4.2821 H   0  0  0  0  0  0  0  0  0  0  0  0
   72.6699   33.8122   -4.6950 H   0  0  0  0  0  0  0  0  0  0  0  0
   72.6742   33.5189   -6.4366 H   0  0  0  0  0  0  0  0  0  0  0  0
   74.7108   32.0853   -6.1901 H   0  0  0  0  0  0  0  0  0  0  0  0
   74.7065   32.3786   -4.4485 H   0  0  0  0  0  0  0  0  0  0  0  0
   74.9244   34.8374   -4.8621 H   0  0  0  0  0  0  0  0  0  0  0  0
   74.9287   34.5441   -6.6037 H   0  0  0  0  0  0  0  0  0  0  0  0
   76.9654   33.1104   -6.3572 H   0  0  0  0  0  0  0  0  0  0  0  0
   76.9611   33.4037   -4.6156 H   0  0  0  0  0  0  0  0  0  0  0  0
   77.1793   35.8624   -5.0292 H   0  0  0  0  0  0  0  0  0  0  0  0
   77.1836   35.5691   -6.7707 H   0  0  0  0  0  0  0  0  0  0  0  0
   79.2205   34.1354   -6.5241 H   0  0  0  0  0  0  0  0  0  0  0  0
   79.2162   34.4287   -4.7827 H   0  0  0  0  0  0  0  0  0  0  0  0
   79.4354   36.8874   -5.1955 H   0  0  0  0  0  0  0  0  0  0  0  0
   79.4376   36.5953   -6.9372 H   0  0  0  0  0  0  0  0  0  0  0  0
   81.4758   35.1623   -6.6941 H   0  0  0  0  0  0  0  0  0  0  0  0
   81.4736   35.4543   -4.9528 H   0  0  0  0  0  0  0  0  0  0  0  0
   81.6935   37.9140   -5.3649 H   0  0  0  0  0  0  0  0  0  0  0  0
   81.6956   37.6219   -7.1064 H   0  0  0  0  0  0  0  0  0  0  0  0
   83.7353   36.1897   -6.8630 H   0  0  0  0  0  0  0  0  0  0  0  0
   83.7336   36.4842   -5.1218 H   0  0  0  0  0  0  0  0  0  0  0  0
   83.9581   38.9422   -5.5369 H   0  0  0  0  0  0  0  0  0  0  0  0
   83.9577   38.6491   -7.2776 H   0  0  0  0  0  0  0  0  0  0  0  0
   86.0105   37.2298   -7.0394 H   0  0  0  0  0  0  0  0  0  0  0  0
   86.0110   37.5230   -5.2981 H   0  0  0  0  0  0  0  0  0  0  0  0
   86.2530   39.6839   -7.4570 H   0  0  0  0  0  0  0  0  0  0  0  0
   87.5763   39.0599   -6.4526 H   0  0  0  0  0  0  0  0  0  0  0  0
   86.2534   39.9785   -5.7074 H   0  0  0  0  0  0  0  0  0  0  0  0
  1  2  1  0  0  0  0
  1 79  1  0  0  0  0
  2  3  2  0  0  0  0
  2  4  1  0  0  0  0
  3 80  1  0  0  0  0
  3 81  1  0  0  0  0
  4  5  1  0  0  0  0
  4 82  1  0  0  0  0
  4 83  1  0  0  0  0
  5  6  1  0  0  0  0
  6  7  1  0  0  0  0
  6 84  1  0  0  0  0
  6 85  1  0  0  0  0
  7  8  1  0  0  0  0
  7 86  1  0  0  0  0
  7 87  1  0  0  0  0
  8  9  1  0  0  0  0
  8 88  1  0  0  0  0
  8 89  1  0  0  0  0
  9 10  1  0  0  0  0
  9 90  1  0  0  0  0
  9 91  1  0  0  0  0
 10 11  1  0  0  0  0
 10 92  1  0  0  0  0
 10 93  1  0  0  0  0
 11 12  1  0  0  0  0
 11 94  1  0  0  0  0
 11 95  1  0  0  0  0
 12 13  1  0  0  0  0
 12 96  1  0  0  0  0
 12 97  1  0  0  0  0
 13 14  1  0  0  0  0
 13 98  1  0  0  0  0
 13 99  1  0  0  0  0
 14 15  1  0  0  0  0
 14100  1  0  0  0  0
 14101  1  0  0  0  0
 15 16  1  0  0  0  0
 15102  1  0  0  0  0
 15103  1  0  0  0  0
 16 17  1  0  0  0  0
 16104  1  0  0  0  0
 16105  1  0  0  0  0
 17 18  1  0  0  0  0
 17106  1  0  0  0  0
 17107  1  0  0  0  0
 18 19  1  0  0  0  0
 18108  1  0  0  0  0
 18109  1  0  0  0  0
 19 20  1  0  0  0  0
 19110  1  0  0  0  0
 19111  1  0  0  0  0
 20 21  1  0  0  0  0
 20112  1  0  0  0  0
 20113  1  0  0  0  0
 21 22  1  0  0  0  0
 21114  1  0  0  0  0
 21115  1  0  0  0  0
 22 23  1  0  0  0  0
 22116  1  0  0  0  0
 22117  1  0  0  0  0
 23 24  1  0  0  0  0
 23118  1  0  0  0  0
 23119  1  0  0  0  0
 24 25  1  0  0  0  0
 24120  1  0  0  0  0
 24121  1  0  0  0  0
 25 26  1  0  0  0  0
 25122  1  0  0  0  0
 25123  1  0  0  0  0
 26 27  1  0  0  0  0
 26124  1  0  0  0  0
 26125  1  0  0  0  0
 27 28  1  0  0  0  0
 27126  1  0  0  0  0
 27127  1  0  0  0  0
 28 29  1  0  0  0  0
 28128  1  0  0  0  0
 28129  1  0  0  0  0
 29 30  1  0  0  0  0
 29130  1  0  0  0  0
 29131  1  0  0  0  0
 30 31  1  0  0  0  0
 30132  1  0  0  0  0
 30133  1  0  0  0  0
 31 32  1  0  0  0  0
 31134  1  0  0  0  0
 31135  1  0  0  0  0
 32 33  1  0  0  0  0
 32136  1  0  0  0  0
 32137  1  0  0  0  0
 33 34  1  0  0  0  0
 33138  1  0  0  0  0
 33139  1  0  0  0  0
 34 35  1  0  0  0  0
 34140  1  0  0  0  0
 34141  1  0  0  0  0
 35 36  1  0  0  0  0
 35142  1  0  0  0  0
 35143  1  0  0  0  0
 36 37  1  0  0  0  0
 36144  1  0  0  0  0
 36145  1  0  0  0  0
 37 38  1  0  0  0  0
 37146  1  0  0  0  0
 37147  1  0  0  0  0
 38 39  1  0  0  0  0
 38148  1  0  0  0  0
 38149  1  0  0  0  0
 39 40  1  0  0  0  0
 39150  1  0  0  0  0
 39151  1  0  0  0  0
 40 41  1  0  0  0  0
 40152  1  0  0  0  0
 40153  1  0  0  0  0
 41 42  1  0  0  0  0
 41154  1  0  0  0  0
 41155  1  0  0  0  0
 42 43  1  0  0  0  0
 42156  1  0  0  0  0
 42157  1  0  0  0  0
 43 44  1  0  0  0  0
 43158  1  0  0  0  0
 43159  1  0  0  0  0
 44 45  1  0  0  0  0
 44160  1  0  0  0  0
 44161  1  0  0  0  0
 45 46  1  0  0  0  0
 45162  1  0  0  0  0
 45163  1  0  0  0  0
 46 47  1  0  0  0  0
 46164  1  0  0  0  0
 46165  1  0  0  0  0
 47 48  1  0  0  0  0
 47166  1  0  0  0  0
 47167  1  0  0  0  0
 48 49  1  0  0  0  0
 48168  1  0  0  0  0
 48169  1  0  0  0  0
 49 50  1  0  0  0  0
 49170  1  0  0  0  0
 49171  1  0  0  0  0
 50 51  1  0  0  0  0
 50172  1  0  0  0  0
 50173  1  0  0  0  0
 51 52  1  0  0  0  0
 51174  1  0  0  0  0
 51175  1  0  0  0  0
 52 53  1  0  0  0  0
 52176  1  0  0  0  0
 52177  1  0  0  0  0
 53 54  1  0  0  0  0
 53178  1  0  0  0  0
 53179  1  0  0  0  0
 54 55  1  0  0  0  0
 54180  1  0  0  0  0
 54181  1  0  0  0  0
 55 56  1  0  0  0  0
 55182  1  0  0  0  0
 55183  1  0  0  0  0
 56 57  1  0  0  0  0
 56184  1  0  0  0  0
 56185  1  0  0  0  0
 57 58  1  0  0  0  0
 57186  1  0  0  0  0
 57187  1  0  0  0  0
 58 59  1  0  0  0  0
 58188  1  0  0  0  0
 58189  1  0  0  0  0
 59 60  1  0  0  0  0
 59190  1  0  0  0  0
 59191  1  0  0  0  0
 60 61  1  0  0  0  0
 60192  1  0  0  0  0
 60193  1  0  0  0  0
 61 62  1  0  0  0  0
 61194  1  0  0  0  0
 61195  1  0  0  0  0
 62 63  1  0  0  0  0
 62196  1  0  0  0  0
 62197  1  0  0  0  0
 63 64  1  0  0  0  0
 63198  1  0  0  0  0
 63199  1  0  0  0  0
 64 65  1  0  0  0  0
 64200  1  0  0  0  0
 64201  1  0  0  0  0
 65 66  1  0  0  0  0
 65202  1  0  0  0  0
 65203  1  0  0  0  0
 66 67  1  0  0  0  0
 66204  1  0  0  0  0
 66205  1  0  0  0  0
 67 68  1  0  0  0  0
 67206  1  0  0  0  0
 67207  1  0  0  0  0
 68 69  1  0  0  0  0
 68208  1  0  0  0  0
 68209  1  0  0  0  0
 69 70  1  0  0  0  0
 69210  1  0  0  0  0
 69211  1  0  0  0  0
 70 71  1  0  0  0  0
 70212  1  0  0  0  0
 70213  1  0  0  0  0
 71 72  1  0  0  0  0
 71214  1  0  0  0  0
 71215  1  0  0  0  0
 72 73  1  0  0  0  0
 72216  1  0  0  0  0
 72217  1  0  0  0  0
 73 74  1  0  0  0  0
 73218  1  0  0  0  0
 73219  1  0  0  0  0
 74 75  1  0  0  0  0
 74220  1  0  0  0  0
 74221  1  0  0  0  0
 75 76  1  0  0  0  0
 75222  1  0  0  0  0
 75223  1  0  0  0  0
 76 77  1  0  0  0  0
 76224  1  0  0  0  0
 76225  1  0  0  0  0
 77 78  1  0  0  0  0
 77226  1  0  0  0  0
 77227  1  0  0  0  0
 78228  1  0  0  0  0
 78229  1  0  0  0  0
 78230  1  0  0  0  0
M  END
$$$$
