
 OpenBabel04232216463D

 58 59  0  0  1  0  0  0  0  0999 V2000
    1.7990    3.8833   -1.7409 C   0  0  0  0  0  0  0  0  0  0  0  0
    3.3220    4.0976   -1.9920 C   0  0  0  0  0  0  0  0  0  0  0  0
    4.1684    2.5531   -1.3695 C   0  0  0  0  0  0  0  0  0  0  0  0
    4.1784    1.1861   -0.9852 C   0  0  0  0  0  0  0  0  0  0  0  0
    4.6602   -0.3874   -0.4647 C   0  0  3  0  0  0  0  0  0  0  0  0
    5.5351   -1.6785   -0.7729 C   0  0  0  0  0  0  0  0  0  0  0  0
    5.1005   -3.0025   -1.4550 C   0  0  0  0  0  0  0  0  0  0  0  0
    5.0759   -3.0241   -2.9810 C   0  0  0  0  0  0  0  0  0  0  0  0
    3.9536   -2.1637   -3.5013 C   0  0  0  0  0  0  0  0  0  0  0  0
    5.4747    0.7120   -0.6631 C   0  0  0  0  0  0  0  0  0  0  0  0
    6.7591    0.9609   -0.7054 C   0  0  0  0  0  0  0  0  0  0  0  0
    7.1433    2.0721   -1.5146 C   0  0  0  0  0  0  0  0  0  0  0  0
    7.7527    3.1298   -0.9653 C   0  0  0  0  0  0  0  0  0  0  0  0
    7.0978    4.3342   -1.3782 C   0  0  0  0  0  0  0  0  0  0  0  0
    7.7134    5.3136   -2.0042 C   0  0  0  0  0  0  0  0  0  0  0  0
    6.9991    6.5081   -2.2878 C   0  0  0  0  0  0  0  0  0  0  0  0
    7.6402    7.5968   -2.7097 C   0  0  0  0  0  0  0  0  0  0  0  0
    6.9457    8.8307   -2.6795 C   0  0  0  0  0  0  0  0  0  0  0  0
    7.4298   10.0281   -3.0249 C   0  0  0  0  0  0  0  0  0  0  0  0
    6.4254   11.0628   -2.9332 C   0  0  0  0  0  0  0  0  0  0  0  0
    5.7155   11.1428   -4.0629 C   0  0  0  0  0  0  0  0  0  0  0  0
    4.2906   10.7359   -4.0947 C   0  0  0  0  0  0  0  0  0  0  0  0
    3.6973   12.0903   -4.6734 C   0  0  0  0  0  0  0  0  0  0  0  0
    3.8837    9.3983   -4.3443 C   0  0  0  0  0  0  0  0  0  0  0  0
    3.8396    7.8529   -3.5154 C   0  0  0  0  0  0  0  0  0  0  0  0
    3.3191    6.6949   -2.7883 C   0  0  0  0  0  0  0  0  0  0  0  0
    3.8955    5.2642   -2.4685 N   0  0  0  0  0  0  0  0  0  0  0  0
    1.6090    2.8615   -1.3656 H   0  0  0  0  0  0  0  0  0  0  0  0
    1.2104    3.9622   -2.6546 H   0  0  0  0  0  0  0  0  0  0  0  0
    1.4129    4.5518   -0.9659 H   0  0  0  0  0  0  0  0  0  0  0  0
    3.4674    2.7620   -0.5288 H   0  0  0  0  0  0  0  0  0  0  0  0
    4.2603   -0.5106    0.5460 H   0  0  0  0  0  0  0  0  0  0  0  0
    5.7485   -2.0520    0.2496 H   0  0  0  0  0  0  0  0  0  0  0  0
    6.5411   -1.4668   -1.1555 H   0  0  0  0  0  0  0  0  0  0  0  0
    4.1764   -3.4148   -1.0388 H   0  0  0  0  0  0  0  0  0  0  0  0
    5.8737   -3.7544   -1.1987 H   0  0  0  0  0  0  0  0  0  0  0  0
    4.9301   -4.0564   -3.3362 H   0  0  0  0  0  0  0  0  0  0  0  0
    6.0418   -2.7037   -3.3912 H   0  0  0  0  0  0  0  0  0  0  0  0
    2.9906   -2.5760   -3.1842 H   0  0  0  0  0  0  0  0  0  0  0  0
    3.9734   -2.1227   -4.5923 H   0  0  0  0  0  0  0  0  0  0  0  0
    4.0438   -1.1477   -3.1145 H   0  0  0  0  0  0  0  0  0  0  0  0
    7.5541    0.2811   -0.3560 H   0  0  0  0  0  0  0  0  0  0  0  0
    6.4834    2.2248   -2.3550 H   0  0  0  0  0  0  0  0  0  0  0  0
    8.4077    3.1355   -0.1242 H   0  0  0  0  0  0  0  0  0  0  0  0
    6.0489    4.4040   -1.1340 H   0  0  0  0  0  0  0  0  0  0  0  0
    8.7660    5.2699   -2.2424 H   0  0  0  0  0  0  0  0  0  0  0  0
    5.9438    6.5581   -1.9927 H   0  0  0  0  0  0  0  0  0  0  0  0
    8.6778    7.5819   -3.0114 H   0  0  0  0  0  0  0  0  0  0  0  0
    5.9276    8.7650   -2.3018 H   0  0  0  0  0  0  0  0  0  0  0  0
    8.4040   10.1734   -3.4705 H   0  0  0  0  0  0  0  0  0  0  0  0
    5.8360   10.9396   -2.0184 H   0  0  0  0  0  0  0  0  0  0  0  0
    6.2065   11.5998   -4.9316 H   0  0  0  0  0  0  0  0  0  0  0  0
    2.6104   12.1434   -4.7101 H   0  0  0  0  0  0  0  0  0  0  0  0
    4.0983   12.3701   -5.6672 H   0  0  0  0  0  0  0  0  0  0  0  0
    4.0069   12.9492   -4.0349 H   0  0  0  0  0  0  0  0  0  0  0  0
    4.5280    9.0513   -5.1833 H   0  0  0  0  0  0  0  0  0  0  0  0
    3.1106    8.5364   -2.9815 H   0  0  0  0  0  0  0  0  0  0  0  0
    2.3854    6.8713   -2.2418 H   0  0  0  0  0  0  0  0  0  0  0  0
  1  2  1  0  0  0  0
  1 28  1  0  0  0  0
  1 29  1  0  0  0  0
  1 30  1  0  0  0  0
  2  3  1  0  0  0  0
  2 27  2  3  0  0  0
  3  4  2  3  0  0  0
  3 31  1  0  0  0  0
  4  5  1  0  0  0  0
  4 10  1  0  0  0  0
  5  6  1  0  0  0  0
  5 10  1  0  0  0  0
  5 32  1  0  0  0  0
  6  7  1  0  0  0  0
  6 33  1  0  0  0  0
  6 34  1  0  0  0  0
  7  8  1  0  0  0  0
  7 35  1  0  0  0  0
  7 36  1  0  0  0  0
  8  9  1  0  0  0  0
  8 37  1  0  0  0  0
  8 38  1  0  0  0  0
  9 39  1  0  0  0  0
  9 40  1  0  0  0  0
  9 41  1  0  0  0  0
 10 11  2  3  0  0  0
 11 12  1  0  0  0  0
 11 42  1  0  0  0  0
 12 13  2  3  0  0  0
 12 43  1  0  0  0  0
 13 14  1  0  0  0  0
 13 44  1  0  0  0  0
 14 15  2  3  0  0  0
 14 45  1  0  0  0  0
 15 16  1  0  0  0  0
 15 46  1  0  0  0  0
 16 17  2  3  0  0  0
 16 47  1  0  0  0  0
 17 18  1  0  0  0  0
 17 48  1  0  0  0  0
 18 19  2  3  0  0  0
 18 49  1  0  0  0  0
 19 20  1  0  0  0  0
 19 50  1  0  0  0  0
 20 21  2  3  0  0  0
 20 51  1  0  0  0  0
 21 22  1  0  0  0  0
 21 52  1  0  0  0  0
 22 23  1  0  0  0  0
 22 24  2  3  0  0  0
 23 53  1  0  0  0  0
 23 54  1  0  0  0  0
 23 55  1  0  0  0  0
 24 25  1  0  0  0  0
 24 56  1  0  0  0  0
 25 26  2  3  0  0  0
 25 57  1  0  0  0  0
 26 27  1  0  0  0  0
 26 58  1  0  0  0  0
M  END
$$$$
