
 OpenBabel04232216593D

 60 60  0  0  0  0  0  0  0  0999 V2000
    3.9192    2.0266    1.4102 O   0  0  0  0  0  0  0  0  0  0  0  0
    4.9629    1.5265    0.9506 C   0  0  0  0  0  0  0  0  0  0  0  0
    4.6956    0.5142   -0.0488 N   0  0  0  0  0  0  0  0  0  0  0  0
    5.2275   -0.4149   -1.1983 C   0  0  0  0  0  0  0  0  0  0  0  0
    6.4669   -1.3826   -1.1121 C   0  0  0  0  0  0  0  0  0  0  0  0
    6.6933   -2.5573   -0.1191 C   0  0  0  0  0  0  0  0  0  0  0  0
    5.9258   -3.9008   -0.2035 C   0  0  0  0  0  0  0  0  0  0  0  0
    6.0376   -4.7807   -1.4715 C   0  0  0  0  0  0  0  0  0  0  0  0
    7.4294   -5.3684   -1.7790 C   0  0  0  0  0  0  0  0  0  0  0  0
    7.4336   -6.2329   -3.0591 C   0  0  0  0  0  0  0  0  0  0  0  0
    8.8317   -6.7763   -3.3879 C   0  0  0  0  0  0  0  0  0  0  0  0
    8.8388   -7.6084   -4.6654 C   0  0  0  0  0  0  0  0  0  0  0  0
    6.3614    2.4401    1.1536 C   0  0  0  0  0  0  0  0  0  0  0  0
    6.3128    2.7919   -0.1343 C   0  0  0  0  0  0  0  0  0  0  0  0
    7.2946    2.1515   -0.9377 C   0  0  0  0  0  0  0  0  0  0  0  0
    7.9503    2.9987   -1.6896 C   0  0  0  0  0  0  0  0  0  0  0  0
    9.3399    2.7859   -1.5630 C   0  0  0  0  0  0  0  0  0  0  0  0
    9.9366    3.5664   -0.6709 C   0  0  0  0  0  0  0  0  0  0  0  0
   10.9403    2.8393    0.0171 C   0  0  0  0  0  0  0  0  0  0  0  0
   12.1490    3.3516    0.1672 C   0  0  0  0  0  0  0  0  0  0  0  0
   12.4392    3.0033    1.5631 C   0  0  0  0  0  0  0  0  0  0  0  0
   13.0138    2.0090    1.9546 O   0  0  0  0  0  0  0  0  0  0  0  0
   11.7988    4.0653    2.4068 C   0  0  0  0  0  0  0  0  0  0  0  0
   12.7023    5.3545    2.0417 C   0  0  0  0  0  0  0  0  0  0  0  0
   10.4694    3.8366    2.8378 C   0  0  0  0  0  0  0  0  0  0  0  0
    9.0422    2.9678    2.3920 C   0  0  0  0  0  0  0  0  0  0  0  0
    7.8213    2.3055    1.9947 C   0  0  0  0  0  0  0  0  0  0  0  0
    3.6963    0.6411   -0.2594 H   0  0  0  0  0  0  0  0  0  0  0  0
    5.3772    0.2261   -2.0893 H   0  0  0  0  0  0  0  0  0  0  0  0
    4.3651   -1.0336   -1.5202 H   0  0  0  0  0  0  0  0  0  0  0  0
    7.3356   -0.7366   -0.9887 H   0  0  0  0  0  0  0  0  0  0  0  0
    6.6046   -1.8236   -2.1139 H   0  0  0  0  0  0  0  0  0  0  0  0
    6.6006   -2.1709    0.9014 H   0  0  0  0  0  0  0  0  0  0  0  0
    7.7558   -2.8348   -0.2163 H   0  0  0  0  0  0  0  0  0  0  0  0
    4.8666   -3.7062   -0.0071 H   0  0  0  0  0  0  0  0  0  0  0  0
    6.2693   -4.5273    0.6370 H   0  0  0  0  0  0  0  0  0  0  0  0
    5.6691   -4.2187   -2.3336 H   0  0  0  0  0  0  0  0  0  0  0  0
    5.3515   -5.6323   -1.3402 H   0  0  0  0  0  0  0  0  0  0  0  0
    7.7674   -5.9884   -0.9385 H   0  0  0  0  0  0  0  0  0  0  0  0
    8.1506   -4.5548   -1.8982 H   0  0  0  0  0  0  0  0  0  0  0  0
    7.0742   -5.6350   -3.9052 H   0  0  0  0  0  0  0  0  0  0  0  0
    6.7401   -7.0761   -2.9455 H   0  0  0  0  0  0  0  0  0  0  0  0
    9.1974   -7.3958   -2.5607 H   0  0  0  0  0  0  0  0  0  0  0  0
    9.5355   -5.9443   -3.5056 H   0  0  0  0  0  0  0  0  0  0  0  0
    8.1771   -8.4759   -4.5763 H   0  0  0  0  0  0  0  0  0  0  0  0
    9.8489   -7.9770   -4.8763 H   0  0  0  0  0  0  0  0  0  0  0  0
    8.5130   -7.0143   -5.5254 H   0  0  0  0  0  0  0  0  0  0  0  0
    5.3953    2.9374   -0.7207 H   0  0  0  0  0  0  0  0  0  0  0  0
    7.7253    1.2099   -0.5460 H   0  0  0  0  0  0  0  0  0  0  0  0
    7.5632    4.0164   -1.7319 H   0  0  0  0  0  0  0  0  0  0  0  0
    9.7349    1.7771   -1.6935 H   0  0  0  0  0  0  0  0  0  0  0  0
    9.4622    4.4473   -0.2107 H   0  0  0  0  0  0  0  0  0  0  0  0
   10.5942    1.9975    0.6271 H   0  0  0  0  0  0  0  0  0  0  0  0
   12.3081    4.3444   -0.2474 H   0  0  0  0  0  0  0  0  0  0  0  0
   12.1916    6.0545    1.3685 H   0  0  0  0  0  0  0  0  0  0  0  0
   13.6103    5.0686    1.4454 H   0  0  0  0  0  0  0  0  0  0  0  0
   13.1678    5.9030    2.8683 H   0  0  0  0  0  0  0  0  0  0  0  0
   10.7039    3.0663    3.6231 H   0  0  0  0  0  0  0  0  0  0  0  0
    8.6870    4.0066    2.1898 H   0  0  0  0  0  0  0  0  0  0  0  0
    7.7850    1.2628    2.3061 H   0  0  0  0  0  0  0  0  0  0  0  0
  1  2  2  0  0  0  0
  2  3  1  0  0  0  0
  2 13  1  0  0  0  0
  3  4  1  0  0  0  0
  3 28  1  0  0  0  0
  4  5  1  0  0  0  0
  4 29  1  0  0  0  0
  4 30  1  0  0  0  0
  5  6  1  0  0  0  0
  5 31  1  0  0  0  0
  5 32  1  0  0  0  0
  6  7  1  0  0  0  0
  6 33  1  0  0  0  0
  6 34  1  0  0  0  0
  7  8  1  0  0  0  0
  7 35  1  0  0  0  0
  7 36  1  0  0  0  0
  8  9  1  0  0  0  0
  8 37  1  0  0  0  0
  8 38  1  0  0  0  0
  9 10  1  0  0  0  0
  9 39  1  0  0  0  0
  9 40  1  0  0  0  0
 10 11  1  0  0  0  0
 10 41  1  0  0  0  0
 10 42  1  0  0  0  0
 11 12  1  0  0  0  0
 11 43  1  0  0  0  0
 11 44  1  0  0  0  0
 12 45  1  0  0  0  0
 12 46  1  0  0  0  0
 12 47  1  0  0  0  0
 13 14  2  3  0  0  0
 13 27  1  0  0  0  0
 14 15  1  0  0  0  0
 14 48  1  0  0  0  0
 15 16  2  3  0  0  0
 15 49  1  0  0  0  0
 16 17  1  0  0  0  0
 16 50  1  0  0  0  0
 17 18  2  3  0  0  0
 17 51  1  0  0  0  0
 18 19  1  0  0  0  0
 18 52  1  0  0  0  0
 19 20  2  3  0  0  0
 19 53  1  0  0  0  0
 20 21  1  0  0  0  0
 20 54  1  0  0  0  0
 21 22  2  0  0  0  0
 21 23  1  0  0  0  0
 23 24  1  0  0  0  0
 23 25  2  3  0  0  0
 24 55  1  0  0  0  0
 24 56  1  0  0  0  0
 24 57  1  0  0  0  0
 25 26  1  0  0  0  0
 25 58  1  0  0  0  0
 26 27  2  3  0  0  0
 26 59  1  0  0  0  0
 27 60  1  0  0  0  0
M  END
$$$$
