
 OpenBabel04232216513D

 62 62  0  0  0  0  0  0  0  0999 V2000
    3.1044   -0.6205    1.6115 C   0  0  0  0  0  0  0  0  0  0  0  0
    2.6486    0.8013    1.3209 C   0  0  0  0  0  0  0  0  0  0  0  0
    3.0277    1.3019   -0.0917 C   0  0  0  0  0  0  0  0  0  0  0  0
    4.5504    1.3226   -0.3605 C   0  0  0  0  0  0  0  0  0  0  0  0
    5.1041    0.4757   -1.4338 C   0  0  0  0  0  0  0  0  0  0  0  0
    4.1346   -0.2250   -2.4230 C   0  0  0  0  0  0  0  0  0  0  0  0
    3.8566    0.4859   -3.7550 C   0  0  0  0  0  0  0  0  0  0  0  0
    2.9999    1.7349   -3.6555 C   0  0  0  0  0  0  0  0  0  0  0  0
    6.3864    0.1245   -1.6467 C   0  0  0  0  0  0  0  0  0  0  0  0
    7.6603    0.2558   -1.0048 C   0  0  0  0  0  0  0  0  0  0  0  0
    8.2011    1.0076   -0.0501 C   0  0  0  0  0  0  0  0  0  0  0  0
    7.7191    2.0816    0.7745 C   0  0  0  0  0  0  0  0  0  0  0  0
    8.7781    2.6598    1.7212 C   0  0  0  0  0  0  0  0  0  0  0  0
    9.5412    3.8209    1.0934 C   0  0  0  0  0  0  0  0  0  0  0  0
   10.5879    4.4069    2.0438 C   0  0  0  0  0  0  0  0  0  0  0  0
   11.2972    5.5742    1.3588 C   0  0  0  0  0  0  0  0  0  0  0  0
   12.3643    6.2065    2.2459 C   0  0  0  0  0  0  0  0  0  0  0  0
   13.0430    7.3671    1.5171 C   0  0  0  0  0  0  0  0  0  0  0  0
   14.1178    8.0119    2.3875 C   0  0  0  0  0  0  0  0  0  0  0  0
   14.8001    9.1668    1.6605 C   0  0  0  0  0  0  0  0  0  0  0  0
   15.8244    9.7734    2.4835 N   0  0  0  0  0  0  0  0  0  0  0  0
   15.5355   10.7762    3.3738 C   0  0  0  0  0  0  0  0  0  0  0  0
   14.4459   11.2874    3.5502 O   0  0  0  0  0  0  0  0  0  0  0  0
    6.4815    2.5686    0.8915 C   0  0  0  0  0  0  0  0  0  0  0  0
    5.1763    2.1644    0.4805 C   0  0  0  0  0  0  0  0  0  0  0  0
    2.9245   -0.8608    2.6648 H   0  0  0  0  0  0  0  0  0  0  0  0
    4.1738   -0.7566    1.4247 H   0  0  0  0  0  0  0  0  0  0  0  0
    2.5507   -1.3368    0.9983 H   0  0  0  0  0  0  0  0  0  0  0  0
    3.0617    1.4628    2.0914 H   0  0  0  0  0  0  0  0  0  0  0  0
    1.5605    0.8609    1.4379 H   0  0  0  0  0  0  0  0  0  0  0  0
    2.6484    2.3290   -0.2040 H   0  0  0  0  0  0  0  0  0  0  0  0
    2.4434    0.7361   -0.8137 H   0  0  0  0  0  0  0  0  0  0  0  0
    3.2036   -0.5492   -1.9537 H   0  0  0  0  0  0  0  0  0  0  0  0
    4.5760   -1.1975   -2.6976 H   0  0  0  0  0  0  0  0  0  0  0  0
    3.3412   -0.2231   -4.4177 H   0  0  0  0  0  0  0  0  0  0  0  0
    4.8026    0.7307   -4.2516 H   0  0  0  0  0  0  0  0  0  0  0  0
    1.9708    1.4819   -3.3809 H   0  0  0  0  0  0  0  0  0  0  0  0
    2.9657    2.2376   -4.6286 H   0  0  0  0  0  0  0  0  0  0  0  0
    3.3948    2.4458   -2.9270 H   0  0  0  0  0  0  0  0  0  0  0  0
    6.5472   -0.5037   -2.5302 H   0  0  0  0  0  0  0  0  0  0  0  0
    8.3735   -0.4460   -1.4473 H   0  0  0  0  0  0  0  0  0  0  0  0
    9.2601    0.7928    0.1216 H   0  0  0  0  0  0  0  0  0  0  0  0
    9.4745    1.8752    2.0478 H   0  0  0  0  0  0  0  0  0  0  0  0
    8.3020    3.0035    2.6510 H   0  0  0  0  0  0  0  0  0  0  0  0
    8.8335    4.6103    0.8117 H   0  0  0  0  0  0  0  0  0  0  0  0
   10.0342    3.4851    0.1736 H   0  0  0  0  0  0  0  0  0  0  0  0
   11.3164    3.6361    2.3239 H   0  0  0  0  0  0  0  0  0  0  0  0
   10.1080    4.7515    2.9684 H   0  0  0  0  0  0  0  0  0  0  0  0
   10.5580    6.3360    1.0821 H   0  0  0  0  0  0  0  0  0  0  0  0
   11.7588    5.2216    0.4282 H   0  0  0  0  0  0  0  0  0  0  0  0
   13.1119    5.4530    2.5209 H   0  0  0  0  0  0  0  0  0  0  0  0
   11.9079    6.5677    3.1753 H   0  0  0  0  0  0  0  0  0  0  0  0
   12.2922    8.1181    1.2411 H   0  0  0  0  0  0  0  0  0  0  0  0
   13.4924    7.0038    0.5845 H   0  0  0  0  0  0  0  0  0  0  0  0
   14.8671    7.2605    2.6668 H   0  0  0  0  0  0  0  0  0  0  0  0
   13.6694    8.3710    3.3218 H   0  0  0  0  0  0  0  0  0  0  0  0
   14.0651    9.9306    1.3826 H   0  0  0  0  0  0  0  0  0  0  0  0
   15.2896    8.8100    0.7479 H   0  0  0  0  0  0  0  0  0  0  0  0
   16.7541    9.3741    2.4824 H   0  0  0  0  0  0  0  0  0  0  0  0
   16.4340   11.0853    3.9403 H   0  0  0  0  0  0  0  0  0  0  0  0
    6.3939    3.4114    1.5864 H   0  0  0  0  0  0  0  0  0  0  0  0
    4.4939    2.7309    1.1250 H   0  0  0  0  0  0  0  0  0  0  0  0
  1  2  1  0  0  0  0
  1 26  1  0  0  0  0
  1 27  1  0  0  0  0
  1 28  1  0  0  0  0
  2  3  1  0  0  0  0
  2 29  1  0  0  0  0
  2 30  1  0  0  0  0
  3  4  1  0  0  0  0
  3 31  1  0  0  0  0
  3 32  1  0  0  0  0
  4  5  1  0  0  0  0
  4 25  2  0  0  0  0
  5  6  1  0  0  0  0
  5  9  2  0  0  0  0
  6  7  1  0  0  0  0
  6 33  1  0  0  0  0
  6 34  1  0  0  0  0
  7  8  1  0  0  0  0
  7 35  1  0  0  0  0
  7 36  1  0  0  0  0
  8 37  1  0  0  0  0
  8 38  1  0  0  0  0
  8 39  1  0  0  0  0
  9 10  1  0  0  0  0
  9 40  1  0  0  0  0
 10 11  2  0  0  0  0
 10 41  1  0  0  0  0
 11 12  1  0  0  0  0
 11 42  1  0  0  0  0
 12 13  1  0  0  0  0
 12 24  2  0  0  0  0
 13 14  1  0  0  0  0
 13 43  1  0  0  0  0
 13 44  1  0  0  0  0
 14 15  1  0  0  0  0
 14 45  1  0  0  0  0
 14 46  1  0  0  0  0
 15 16  1  0  0  0  0
 15 47  1  0  0  0  0
 15 48  1  0  0  0  0
 16 17  1  0  0  0  0
 16 49  1  0  0  0  0
 16 50  1  0  0  0  0
 17 18  1  0  0  0  0
 17 51  1  0  0  0  0
 17 52  1  0  0  0  0
 18 19  1  0  0  0  0
 18 53  1  0  0  0  0
 18 54  1  0  0  0  0
 19 20  1  0  0  0  0
 19 55  1  0  0  0  0
 19 56  1  0  0  0  0
 20 21  1  0  0  0  0
 20 57  1  0  0  0  0
 20 58  1  0  0  0  0
 21 22  1  0  0  0  0
 21 59  1  0  0  0  0
 22 23  2  0  0  0  0
 22 60  1  0  0  0  0
 24 25  1  0  0  0  0
 24 61  1  0  0  0  0
 25 62  1  0  0  0  0
M  END
$$$$
