
 OpenBabel04232216543D

197196  0  0  0  0  0  0  0  0999 V2000
   53.5036   11.7601   19.4483 C   0  0  0  0  0  0  0  0  0  0  0  0
   52.7897   12.9136   18.7614 C   0  0  0  0  0  0  0  0  0  0  0  0
   52.9153   14.1937   19.5822 C   0  0  0  0  0  0  0  0  0  0  0  0
   52.1961   15.3491   18.8921 C   0  0  0  0  0  0  0  0  0  0  0  0
   52.3434   16.5563   19.7108 N   0  0  0  0  0  0  0  0  0  0  0  0
   51.6570   17.6407   19.0467 N   0  0  0  0  0  0  0  0  0  0  0  0
   51.7973   18.8536   19.8595 C   0  0  0  0  0  0  0  0  0  0  0  0
   51.0703   20.0038   19.1682 C   0  0  0  0  0  0  0  0  0  0  0  0
   51.1798   21.3010   19.9684 C   0  0  0  0  0  0  0  0  0  0  0  0
   50.4517   22.4572   19.2390 C   0  0  0  0  0  0  0  0  0  0  0  0
   50.5699   23.7660   20.0013 C   0  0  0  0  0  0  0  0  0  0  0  0
   49.9063   24.9565   19.2680 C   0  0  0  0  0  0  0  0  0  0  0  0
   49.9705   26.7874   19.7711 S   0  0  0  0  0  0  0  0  0  0  0  0
   51.7237   27.0555   20.2061 C   0  0  0  0  0  0  0  0  0  0  0  0
   52.0963   28.5924   21.3785 S   0  0  0  0  0  0  0  0  0  0  0  0
   51.3549   28.3512   23.1413 C   0  0  0  0  0  0  0  0  0  0  0  0
   51.7854   29.7487   24.2755 S   0  0  0  0  0  0  0  0  0  0  0  0
   51.2672   29.1709   25.9556 C   0  0  0  0  0  0  0  0  0  0  0  0
   52.2732   27.9113   26.8448 S   0  0  0  0  0  0  0  0  0  0  0  0
   53.9248   28.4283   26.5130 C   0  0  0  0  0  0  0  0  0  0  0  0
   55.3433   27.3723   26.7549 S   0  0  0  0  0  0  0  0  0  0  0  0
   55.0794   26.1802   25.4577 C   0  0  0  0  0  0  0  0  0  0  0  0
   55.2410   26.7081   23.7643 S   0  0  0  0  0  0  0  0  0  0  0  0
   54.8923   25.1413   22.9901 C   0  0  0  0  0  0  0  0  0  0  0  0
   53.4521   24.7025   22.0215 S   0  0  0  0  0  0  0  0  0  0  0  0
   52.2122   25.5192   22.9467 C   0  0  0  0  0  0  0  0  0  0  0  0
   50.4681   25.4698   22.5620 S   0  0  0  0  0  0  0  0  0  0  0  0
   49.4982   25.4191   24.0650 C   0  0  0  0  0  0  0  0  0  0  0  0
   49.7047   26.5924   25.4104 S   0  0  0  0  0  0  0  0  0  0  0  0
   49.2773   25.9890   27.0821 C   0  0  0  0  0  0  0  0  0  0  0  0
   50.1182   25.4777   28.6241 S   0  0  0  0  0  0  0  0  0  0  0  0
   51.7588   24.8639   28.2679 C   0  0  0  0  0  0  0  0  0  0  0  0
   52.2018   22.7927   28.6390 S   0  0  0  0  0  0  0  0  0  0  0  0
   52.8929   21.5916   27.4047 C   0  0  0  0  0  0  0  0  0  0  0  0
   54.0857   20.2618   27.5439 S   0  0  0  0  0  0  0  0  0  0  0  0
   53.2225   19.2218   28.6485 C   0  0  0  0  0  0  0  0  0  0  0  0
   51.4704   18.7550   28.4398 S   0  0  0  0  0  0  0  0  0  0  0  0
   51.1821   17.9607   26.8462 C   0  0  0  0  0  0  0  0  0  0  0  0
   49.3717   17.4158   26.5610 S   0  0  0  0  0  0  0  0  0  0  0  0
   48.2727   18.9276   26.3346 C   0  0  0  0  0  0  0  0  0  0  0  0
   47.9733   19.4863   24.5228 S   0  0  0  0  0  0  0  0  0  0  0  0
   48.0433   21.5279   24.0837 C   0  0  0  0  0  0  0  0  0  0  0  0
   48.4858   23.1364   25.1769 S   0  0  0  0  0  0  0  0  0  0  0  0
   50.6801   23.3475   25.6770 C   0  0  0  0  0  0  0  0  0  0  0  0
   52.0695   24.5116   25.7369 S   0  0  0  0  0  0  0  0  0  0  0  0
   53.8190   23.9674   26.9116 C   0  0  0  0  0  0  0  0  0  0  0  0
   54.6779   24.8372   28.5154 S   0  0  0  0  0  0  0  0  0  0  0  0
   53.9413   24.2944   30.2414 C   0  0  0  0  0  0  0  0  0  0  0  0
   54.6024   22.6729   30.7444 S   0  0  0  0  0  0  0  0  0  0  0  0
   53.3294   22.0010   31.8702 C   0  0  0  0  0  0  0  0  0  0  0  0
   51.5174   22.2416   31.7437 S   0  0  0  0  0  0  0  0  0  0  0  0
   50.9434   20.9005   30.6540 C   0  0  0  0  0  0  0  0  0  0  0  0
   49.1453   20.7194   30.4594 S   0  0  0  0  0  0  0  0  0  0  0  0
   48.7117   22.1899   29.5497 C   0  0  0  0  0  0  0  0  0  0  0  0
   49.3046   22.5433   27.9126 S   0  0  0  0  0  0  0  0  0  0  0  0
   49.6098   21.1151   26.7265 C   0  0  0  0  0  0  0  0  0  0  0  0
   50.5989   20.7858   24.7818 S   0  0  0  0  0  0  0  0  0  0  0  0
   52.3205   21.1070   24.6916 C   0  0  0  0  0  0  0  0  0  0  0  0
   53.0898   21.9899   23.6958 C   0  0  0  0  0  0  0  0  0  0  0  0
   54.5859   21.9038   24.1046 C   0  0  0  0  0  0  0  0  0  0  0  0
   55.4950   22.0847   22.9334 C   0  0  0  0  0  0  0  0  0  0  0  0
   56.8510   22.4542   23.4837 C   0  0  0  0  0  0  0  0  0  0  0  0
   57.6206   23.0758   22.3531 C   0  0  0  0  0  0  0  0  0  0  0  0
   59.0725   23.0318   22.6904 C   0  0  0  0  0  0  0  0  0  0  0  0
   59.8213   23.4302   21.4510 C   0  0  0  0  0  0  0  0  0  0  0  0
   61.2847   23.2648   21.7369 C   0  0  0  0  0  0  0  0  0  0  0  0
   62.0594   23.6550   20.5056 C   0  0  0  0  0  0  0  0  0  0  0  0
   63.5319   23.5035   20.7966 C   0  0  0  0  0  0  0  0  0  0  0  0
   64.3365   23.9148   19.5887 C   0  0  0  0  0  0  0  0  0  0  0  0
   65.8278   23.6942   19.9531 C   0  0  0  0  0  0  0  0  0  0  0  0
   66.6305   24.0644   18.7637 C   0  0  0  0  0  0  0  0  0  0  0  0
   68.1031   23.9056   19.0099 C   0  0  0  0  0  0  0  0  0  0  0  0
   68.9136   24.2965   17.7925 C   0  0  0  0  0  0  0  0  0  0  0  0
   70.3919   24.1278   18.0890 C   0  0  0  0  0  0  0  0  0  0  0  0
   71.2051   24.5213   16.8714 C   0  0  0  0  0  0  0  0  0  0  0  0
   72.6867   24.3538   17.1654 C   0  0  0  0  0  0  0  0  0  0  0  0
   73.5076   24.7455   15.9488 C   0  0  0  0  0  0  0  0  0  0  0  0
   74.9937   24.5792   16.2386 C   0  0  0  0  0  0  0  0  0  0  0  0
   75.8019   24.9742   15.0196 C   0  0  0  0  0  0  0  0  0  0  0  0
   77.2941   24.8088   15.3010 C   0  0  0  0  0  0  0  0  0  0  0  0
   78.1185   25.2000   14.0908 C   0  0  0  0  0  0  0  0  0  0  0  0
   53.4061   10.8452   18.8498 H   0  0  0  0  0  0  0  0  0  0  0  0
   53.0751   11.5651   20.4360 H   0  0  0  0  0  0  0  0  0  0  0  0
   54.5688   11.9739   19.5695 H   0  0  0  0  0  0  0  0  0  0  0  0
   51.7329   12.6573   18.6286 H   0  0  0  0  0  0  0  0  0  0  0  0
   53.2196   13.0630   17.7661 H   0  0  0  0  0  0  0  0  0  0  0  0
   53.9761   14.4410   19.7185 H   0  0  0  0  0  0  0  0  0  0  0  0
   52.4900   14.0362   20.5820 H   0  0  0  0  0  0  0  0  0  0  0  0
   51.1345   15.1000   18.7719 H   0  0  0  0  0  0  0  0  0  0  0  0
   52.6245   15.5113   17.8949 H   0  0  0  0  0  0  0  0  0  0  0  0
   53.3448   16.7541   19.7981 H   0  0  0  0  0  0  0  0  0  0  0  0
   50.6572   17.4273   18.9545 H   0  0  0  0  0  0  0  0  0  0  0  0
   52.8575   19.1092   19.9796 H   0  0  0  0  0  0  0  0  0  0  0  0
   51.3723   18.6943   20.8596 H   0  0  0  0  0  0  0  0  0  0  0  0
   50.0111   19.7491   19.0356 H   0  0  0  0  0  0  0  0  0  0  0  0
   51.4951   20.1584   18.1683 H   0  0  0  0  0  0  0  0  0  0  0  0
   52.2377   21.5559   20.1108 H   0  0  0  0  0  0  0  0  0  0  0  0
   50.7507   21.1539   20.9686 H   0  0  0  0  0  0  0  0  0  0  0  0
   49.3980   22.1798   19.1182 H   0  0  0  0  0  0  0  0  0  0  0  0
   50.8880   22.5672   18.2406 H   0  0  0  0  0  0  0  0  0  0  0  0
   51.6313   23.9537   20.1456 H   0  0  0  0  0  0  0  0  0  0  0  0
   50.0987   23.5578   20.9691 H   0  0  0  0  0  0  0  0  0  0  0  0
   48.8329   24.7338   19.2318 H   0  0  0  0  0  0  0  0  0  0  0  0
   50.2786   24.9581   18.2423 H   0  0  0  0  0  0  0  0  0  0  0  0
   52.2598   27.2845   19.2815 H   0  0  0  0  0  0  0  0  0  0  0  0
   52.1854   26.1103   20.4643 H   0  0  0  0  0  0  0  0  0  0  0  0
   51.8219   27.5711   23.7223 H   0  0  0  0  0  0  0  0  0  0  0  0
   50.2783   28.1997   23.0638 H   0  0  0  0  0  0  0  0  0  0  0  0
   50.2076   28.9038   25.9351 H   0  0  0  0  0  0  0  0  0  0  0  0
   51.2620   30.0243   26.6321 H   0  0  0  0  0  0  0  0  0  0  0  0
   54.0847   29.2131   27.2365 H   0  0  0  0  0  0  0  0  0  0  0  0
   53.9942   28.7287   25.4853 H   0  0  0  0  0  0  0  0  0  0  0  0
   54.0402   25.9181   25.5319 H   0  0  0  0  0  0  0  0  0  0  0  0
   55.7070   25.2953   25.6755 H   0  0  0  0  0  0  0  0  0  0  0  0
   55.0189   24.3757   23.7426 H   0  0  0  0  0  0  0  0  0  0  0  0
   55.6621   25.0597   22.2394 H   0  0  0  0  0  0  0  0  0  0  0  0
   52.4603   26.4013   22.4191 H   0  0  0  0  0  0  0  0  0  0  0  0
   52.5131   25.8230   23.9264 H   0  0  0  0  0  0  0  0  0  0  0  0
   49.8188   24.5407   24.1806 H   0  0  0  0  0  0  0  0  0  0  0  0
   48.4479   25.4331   23.7409 H   0  0  0  0  0  0  0  0  0  0  0  0
   48.2513   25.6443   27.1678 H   0  0  0  0  0  0  0  0  0  0  0  0
   49.2222   27.0169   27.4714 H   0  0  0  0  0  0  0  0  0  0  0  0
   52.1988   25.3760   29.1648 H   0  0  0  0  0  0  0  0  0  0  0  0
   52.3846   25.5021   27.6386 H   0  0  0  0  0  0  0  0  0  0  0  0
   53.4196   21.9704   26.5665 H   0  0  0  0  0  0  0  0  0  0  0  0
   52.0365   21.0622   27.0520 H   0  0  0  0  0  0  0  0  0  0  0  0
   53.2840   19.8956   29.5049 H   0  0  0  0  0  0  0  0  0  0  0  0
   53.8308   18.3572   28.8929 H   0  0  0  0  0  0  0  0  0  0  0  0
   51.7371   17.0284   26.9569 H   0  0  0  0  0  0  0  0  0  0  0  0
   51.5579   18.4750   25.9646 H   0  0  0  0  0  0  0  0  0  0  0  0
   48.4236   19.5073   27.2420 H   0  0  0  0  0  0  0  0  0  0  0  0
   47.2423   18.6677   26.5662 H   0  0  0  0  0  0  0  0  0  0  0  0
   46.9629   21.6367   23.9972 H   0  0  0  0  0  0  0  0  0  0  0  0
   48.3982   21.6740   23.0437 H   0  0  0  0  0  0  0  0  0  0  0  0
   50.8610   23.1102   24.6225 H   0  0  0  0  0  0  0  0  0  0  0  0
   50.9967   22.6632   26.3136 H   0  0  0  0  0  0  0  0  0  0  0  0
   54.3471   24.1601   26.0029 H   0  0  0  0  0  0  0  0  0  0  0  0
   54.4652   23.0910   26.9488 H   0  0  0  0  0  0  0  0  0  0  0  0
   52.8610   24.2950   30.3650 H   0  0  0  0  0  0  0  0  0  0  0  0
   54.2041   25.0868   30.9504 H   0  0  0  0  0  0  0  0  0  0  0  0
   53.5793   22.4777   32.8168 H   0  0  0  0  0  0  0  0  0  0  0  0
   53.5565   20.9361   31.9654 H   0  0  0  0  0  0  0  0  0  0  0  0
   51.3920   19.9567   30.9459 H   0  0  0  0  0  0  0  0  0  0  0  0
   51.2491   21.0275   29.6231 H   0  0  0  0  0  0  0  0  0  0  0  0
   49.0738   23.0330   30.1555 H   0  0  0  0  0  0  0  0  0  0  0  0
   47.6302   22.3595   29.5242 H   0  0  0  0  0  0  0  0  0  0  0  0
   48.5773   21.0485   26.4505 H   0  0  0  0  0  0  0  0  0  0  0  0
   50.0728   20.3453   27.3158 H   0  0  0  0  0  0  0  0  0  0  0  0
   52.8557   20.2058   24.9638 H   0  0  0  0  0  0  0  0  0  0  0  0
   52.3330   21.8717   25.3954 H   0  0  0  0  0  0  0  0  0  0  0  0
   52.8082   23.0832   23.8174 H   0  0  0  0  0  0  0  0  0  0  0  0
   52.9022   21.7596   22.6504 H   0  0  0  0  0  0  0  0  0  0  0  0
   54.7868   20.9047   24.5277 H   0  0  0  0  0  0  0  0  0  0  0  0
   54.8061   22.5891   24.8704 H   0  0  0  0  0  0  0  0  0  0  0  0
   55.1721   22.8684   22.2661 H   0  0  0  0  0  0  0  0  0  0  0  0
   55.5162   21.2023   22.2910 H   0  0  0  0  0  0  0  0  0  0  0  0
   57.3306   21.5590   23.8846 H   0  0  0  0  0  0  0  0  0  0  0  0
   56.8009   23.1781   24.3165 H   0  0  0  0  0  0  0  0  0  0  0  0
   57.3303   24.1156   22.1798 H   0  0  0  0  0  0  0  0  0  0  0  0
   57.4173   22.5409   21.4176 H   0  0  0  0  0  0  0  0  0  0  0  0
   59.3449   22.0137   22.9899 H   0  0  0  0  0  0  0  0  0  0  0  0
   59.2990   23.7007   23.5295 H   0  0  0  0  0  0  0  0  0  0  0  0
   59.5749   24.4610   21.1659 H   0  0  0  0  0  0  0  0  0  0  0  0
   59.5232   22.7856   20.6131 H   0  0  0  0  0  0  0  0  0  0  0  0
   61.4910   22.2208   22.0070 H   0  0  0  0  0  0  0  0  0  0  0  0
   61.5757   23.8821   22.5957 H   0  0  0  0  0  0  0  0  0  0  0  0
   61.8266   24.6893   20.2264 H   0  0  0  0  0  0  0  0  0  0  0  0
   61.7744   23.0117   19.6622 H   0  0  0  0  0  0  0  0  0  0  0  0
   63.7483   22.4654   21.0620 H   0  0  0  0  0  0  0  0  0  0  0  0
   63.8052   24.1378   21.6597 H   0  0  0  0  0  0  0  0  0  0  0  0
   64.1619   24.9396   19.3071 H   0  0  0  0  0  0  0  0  0  0  0  0
   64.0939   23.2698   18.7556 H   0  0  0  0  0  0  0  0  0  0  0  0
   65.9723   22.6564   20.3009 H   0  0  0  0  0  0  0  0  0  0  0  0
   66.1067   24.3421   20.7926 H   0  0  0  0  0  0  0  0  0  0  0  0
   66.4124   25.1053   18.4669 H   0  0  0  0  0  0  0  0  0  0  0  0
   66.3386   23.4364   17.8868 H   0  0  0  0  0  0  0  0  0  0  0  0
   68.3188   22.8599   19.2859 H   0  0  0  0  0  0  0  0  0  0  0  0
   68.3967   24.5290   19.8719 H   0  0  0  0  0  0  0  0  0  0  0  0
   68.7013   25.3373   17.5181 H   0  0  0  0  0  0  0  0  0  0  0  0
   68.6277   23.6738   16.9362 H   0  0  0  0  0  0  0  0  0  0  0  0
   70.5994   23.0874   18.3576 H   0  0  0  0  0  0  0  0  0  0  0  0
   70.6746   24.7496   18.9468 H   0  0  0  0  0  0  0  0  0  0  0  0
   70.9931   25.5625   16.6007 H   0  0  0  0  0  0  0  0  0  0  0  0
   70.9209   23.8972   16.0160 H   0  0  0  0  0  0  0  0  0  0  0  0
   72.8953   23.3119   17.4387 H   0  0  0  0  0  0  0  0  0  0  0  0
   72.9677   24.9769   18.0235 H   0  0  0  0  0  0  0  0  0  0  0  0
   73.2934   25.7867   15.6770 H   0  0  0  0  0  0  0  0  0  0  0  0
   73.2213   24.1222   15.0924 H   0  0  0  0  0  0  0  0  0  0  0  0
   75.2002   23.5374   16.5109 H   0  0  0  0  0  0  0  0  0  0  0  0
   75.2721   25.2014   17.0974 H   0  0  0  0  0  0  0  0  0  0  0  0
   75.6046   26.0162   14.7504 H   0  0  0  0  0  0  0  0  0  0  0  0
   75.5310   24.3509   14.1620 H   0  0  0  0  0  0  0  0  0  0  0  0
   77.5230   23.7670   15.5676 H   0  0  0  0  0  0  0  0  0  0  0  0
   77.5966   25.4308   16.1556 H   0  0  0  0  0  0  0  0  0  0  0  0
   77.8722   24.5745   13.2267 H   0  0  0  0  0  0  0  0  0  0  0  0
   79.1965   25.0803   14.2943 H   0  0  0  0  0  0  0  0  0  0  0  0
   77.9462   26.2460   13.8174 H   0  0  0  0  0  0  0  0  0  0  0  0
  1  2  1  0  0  0  0
  1 82  1  0  0  0  0
  1 83  1  0  0  0  0
  1 84  1  0  0  0  0
  2  3  1  0  0  0  0
  2 85  1  0  0  0  0
  2 86  1  0  0  0  0
  3  4  1  0  0  0  0
  3 87  1  0  0  0  0
  3 88  1  0  0  0  0
  4  5  1  0  0  0  0
  4 89  1  0  0  0  0
  4 90  1  0  0  0  0
  5  6  1  0  0  0  0
  5 91  1  0  0  0  0
  6  7  1  0  0  0  0
  6 92  1  0  0  0  0
  7  8  1  0  0  0  0
  7 93  1  0  0  0  0
  7 94  1  0  0  0  0
  8  9  1  0  0  0  0
  8 95  1  0  0  0  0
  8 96  1  0  0  0  0
  9 10  1  0  0  0  0
  9 97  1  0  0  0  0
  9 98  1  0  0  0  0
 10 11  1  0  0  0  0
 10 99  1  0  0  0  0
 10100  1  0  0  0  0
 11 12  1  0  0  0  0
 11101  1  0  0  0  0
 11102  1  0  0  0  0
 12 13  1  0  0  0  0
 12103  1  0  0  0  0
 12104  1  0  0  0  0
 13 14  1  0  0  0  0
 14 15  1  0  0  0  0
 14105  1  0  0  0  0
 14106  1  0  0  0  0
 15 16  1  0  0  0  0
 16 17  1  0  0  0  0
 16107  1  0  0  0  0
 16108  1  0  0  0  0
 17 18  1  0  0  0  0
 18 19  1  0  0  0  0
 18109  1  0  0  0  0
 18110  1  0  0  0  0
 19 20  1  0  0  0  0
 20 21  1  0  0  0  0
 20111  1  0  0  0  0
 20112  1  0  0  0  0
 21 22  1  0  0  0  0
 22 23  1  0  0  0  0
 22113  1  0  0  0  0
 22114  1  0  0  0  0
 23 24  1  0  0  0  0
 24 25  1  0  0  0  0
 24115  1  0  0  0  0
 24116  1  0  0  0  0
 25 26  1  0  0  0  0
 26 27  1  0  0  0  0
 26117  1  0  0  0  0
 26118  1  0  0  0  0
 27 28  1  0  0  0  0
 28 29  1  0  0  0  0
 28119  1  0  0  0  0
 28120  1  0  0  0  0
 29 30  1  0  0  0  0
 30 31  1  0  0  0  0
 30121  1  0  0  0  0
 30122  1  0  0  0  0
 31 32  1  0  0  0  0
 32 33  1  0  0  0  0
 32123  1  0  0  0  0
 32124  1  0  0  0  0
 33 34  1  0  0  0  0
 34 35  1  0  0  0  0
 34125  1  0  0  0  0
 34126  1  0  0  0  0
 35 36  1  0  0  0  0
 36 37  1  0  0  0  0
 36127  1  0  0  0  0
 36128  1  0  0  0  0
 37 38  1  0  0  0  0
 38 39  1  0  0  0  0
 38129  1  0  0  0  0
 38130  1  0  0  0  0
 39 40  1  0  0  0  0
 40 41  1  0  0  0  0
 40131  1  0  0  0  0
 40132  1  0  0  0  0
 41 42  1  0  0  0  0
 42 43  1  0  0  0  0
 42133  1  0  0  0  0
 42134  1  0  0  0  0
 43 44  1  0  0  0  0
 44 45  1  0  0  0  0
 44135  1  0  0  0  0
 44136  1  0  0  0  0
 45 46  1  0  0  0  0
 46 47  1  0  0  0  0
 46137  1  0  0  0  0
 46138  1  0  0  0  0
 47 48  1  0  0  0  0
 48 49  1  0  0  0  0
 48139  1  0  0  0  0
 48140  1  0  0  0  0
 49 50  1  0  0  0  0
 50 51  1  0  0  0  0
 50141  1  0  0  0  0
 50142  1  0  0  0  0
 51 52  1  0  0  0  0
 52 53  1  0  0  0  0
 52143  1  0  0  0  0
 52144  1  0  0  0  0
 53 54  1  0  0  0  0
 54 55  1  0  0  0  0
 54145  1  0  0  0  0
 54146  1  0  0  0  0
 55 56  1  0  0  0  0
 56 57  1  0  0  0  0
 56147  1  0  0  0  0
 56148  1  0  0  0  0
 57 58  1  0  0  0  0
 58 59  1  0  0  0  0
 58149  1  0  0  0  0
 58150  1  0  0  0  0
 59 60  1  0  0  0  0
 59151  1  0  0  0  0
 59152  1  0  0  0  0
 60 61  1  0  0  0  0
 60153  1  0  0  0  0
 60154  1  0  0  0  0
 61 62  1  0  0  0  0
 61155  1  0  0  0  0
 61156  1  0  0  0  0
 62 63  1  0  0  0  0
 62157  1  0  0  0  0
 62158  1  0  0  0  0
 63 64  1  0  0  0  0
 63159  1  0  0  0  0
 63160  1  0  0  0  0
 64 65  1  0  0  0  0
 64161  1  0  0  0  0
 64162  1  0  0  0  0
 65 66  1  0  0  0  0
 65163  1  0  0  0  0
 65164  1  0  0  0  0
 66 67  1  0  0  0  0
 66165  1  0  0  0  0
 66166  1  0  0  0  0
 67 68  1  0  0  0  0
 67167  1  0  0  0  0
 67168  1  0  0  0  0
 68 69  1  0  0  0  0
 68169  1  0  0  0  0
 68170  1  0  0  0  0
 69 70  1  0  0  0  0
 69171  1  0  0  0  0
 69172  1  0  0  0  0
 70 71  1  0  0  0  0
 70173  1  0  0  0  0
 70174  1  0  0  0  0
 71 72  1  0  0  0  0
 71175  1  0  0  0  0
 71176  1  0  0  0  0
 72 73  1  0  0  0  0
 72177  1  0  0  0  0
 72178  1  0  0  0  0
 73 74  1  0  0  0  0
 73179  1  0  0  0  0
 73180  1  0  0  0  0
 74 75  1  0  0  0  0
 74181  1  0  0  0  0
 74182  1  0  0  0  0
 75 76  1  0  0  0  0
 75183  1  0  0  0  0
 75184  1  0  0  0  0
 76 77  1  0  0  0  0
 76185  1  0  0  0  0
 76186  1  0  0  0  0
 77 78  1  0  0  0  0
 77187  1  0  0  0  0
 77188  1  0  0  0  0
 78 79  1  0  0  0  0
 78189  1  0  0  0  0
 78190  1  0  0  0  0
 79 80  1  0  0  0  0
 79191  1  0  0  0  0
 79192  1  0  0  0  0
 80 81  1  0  0  0  0
 80193  1  0  0  0  0
 80194  1  0  0  0  0
 81195  1  0  0  0  0
 81196  1  0  0  0  0
 81197  1  0  0  0  0
M  END
$$$$
