
 OpenBabel04232216543D

212211  0  0  0  0  0  0  0  0999 V2000
   22.7384  -24.5524   -2.0784 C   0  0  0  0  0  0  0  0  0  0  0  0
   22.2454  -23.4150   -2.9523 C   0  0  0  0  0  0  0  0  0  0  0  0
   22.5432  -23.7070   -4.4254 C   0  0  0  0  0  0  0  0  0  0  0  0
   22.0565  -22.5655   -5.3209 C   0  0  0  0  0  0  0  0  0  0  0  0
   22.3483  -22.8731   -6.7154 N   0  0  0  0  0  0  0  0  0  0  0  0
   21.8646  -21.8133   -7.4801 N   0  0  0  0  0  0  0  0  0  0  0  0
   22.1607  -22.0582   -8.8452 N   0  0  0  0  0  0  0  0  0  0  0  0
   21.7036  -21.0068   -9.6931 N   0  0  0  0  0  0  0  0  0  0  0  0
   22.3415  -19.7896   -9.3431 N   0  0  0  0  0  0  0  0  0  0  0  0
   23.7569  -19.9403   -9.4823 N   0  0  0  0  0  0  0  0  0  0  0  0
   24.0421  -20.2860  -10.8351 N   0  0  0  0  0  0  0  0  0  0  0  0
   23.5614  -19.2469  -11.6958 N   0  0  0  0  0  0  0  0  0  0  0  0
   24.1855  -17.9973  -11.3346 N   0  0  0  0  0  0  0  0  0  0  0  0
   25.6202  -18.1254  -11.4759 N   0  0  0  0  0  0  0  0  0  0  0  0
   25.9620  -18.4638  -12.8374 N   0  0  0  0  0  0  0  0  0  0  0  0
   25.4810  -17.4507  -13.7091 N   0  0  0  0  0  0  0  0  0  0  0  0
   26.0926  -16.1953  -13.3769 N   0  0  0  0  0  0  0  0  0  0  0  0
   27.5148  -16.2920  -13.4806 N   0  0  0  0  0  0  0  0  0  0  0  0
   27.8875  -16.6664  -14.8058 N   0  0  0  0  0  0  0  0  0  0  0  0
   27.4044  -15.6694  -15.7075 N   0  0  0  0  0  0  0  0  0  0  0  0
   27.9828  -14.3813  -15.3783 N   0  0  0  0  0  0  0  0  0  0  0  0
   29.4116  -14.4353  -15.4621 N   0  0  0  0  0  0  0  0  0  0  0  0
   29.8123  -14.8339  -16.7673 N   0  0  0  0  0  0  0  0  0  0  0  0
   29.3116  -13.8469  -17.6863 N   0  0  0  0  0  0  0  0  0  0  0  0
   29.8294  -12.5349  -17.3341 N   0  0  0  0  0  0  0  0  0  0  0  0
   31.2662  -12.5563  -17.4031 N   0  0  0  0  0  0  0  0  0  0  0  0
   31.6621  -12.9304  -18.7122 N   0  0  0  0  0  0  0  0  0  0  0  0
   31.1806  -11.9944  -19.6720 N   0  0  0  0  0  0  0  0  0  0  0  0
   31.6819  -10.7009  -19.3662 N   0  0  0  0  0  0  0  0  0  0  0  0
   33.1070  -10.6899  -19.3976 N   0  0  0  0  0  0  0  0  0  0  0  0
   33.5590  -11.0674  -20.6934 N   0  0  0  0  0  0  0  0  0  0  0  0
   33.0587  -10.1489  -21.6558 N   0  0  0  0  0  0  0  0  0  0  0  0
   33.4993   -8.8346  -21.3516 N   0  0  0  0  0  0  0  0  0  0  0  0
   34.9181   -8.8201  -21.3699 N   0  0  0  0  0  0  0  0  0  0  0  0
   35.4148   -9.2040  -22.6604 N   0  0  0  0  0  0  0  0  0  0  0  0
   34.9096   -8.2981  -23.6719 N   0  0  0  0  0  0  0  0  0  0  0  0
   35.3823   -6.9585  -23.3296 C   0  0  0  0  0  0  0  0  0  0  0  0
   36.8322   -6.9459  -23.3199 N   0  0  0  0  0  0  0  0  0  0  0  0
   37.3353   -7.3464  -24.6423 C   0  0  0  0  0  0  0  0  0  0  0  0
   38.8506   -7.3524  -24.6541 C   0  0  0  0  0  0  0  0  0  0  0  0
   39.3645   -7.7666  -26.0266 C   0  0  0  0  0  0  0  0  0  0  0  0
   40.8825   -7.7698  -26.0370 C   0  0  0  0  0  0  0  0  0  0  0  0
   41.3950   -8.1818  -27.4052 C   0  0  0  0  0  0  0  0  0  0  0  0
   42.9122   -8.1836  -27.4111 C   0  0  0  0  0  0  0  0  0  0  0  0
   43.4230   -8.5953  -28.7784 C   0  0  0  0  0  0  0  0  0  0  0  0
   44.9393   -8.5969  -28.7837 C   0  0  0  0  0  0  0  0  0  0  0  0
   45.4499   -9.0085  -30.1507 C   0  0  0  0  0  0  0  0  0  0  0  0
   46.9661   -9.0101  -30.1559 C   0  0  0  0  0  0  0  0  0  0  0  0
   47.4765   -9.4217  -31.5230 C   0  0  0  0  0  0  0  0  0  0  0  0
   48.9927   -9.4252  -31.5276 C   0  0  0  0  0  0  0  0  0  0  0  0
   49.5032   -9.8369  -32.8946 C   0  0  0  0  0  0  0  0  0  0  0  0
   51.0194   -9.8423  -32.8986 C   0  0  0  0  0  0  0  0  0  0  0  0
   51.5299  -10.2558  -34.2651 C   0  0  0  0  0  0  0  0  0  0  0  0
   53.0460  -10.2593  -34.2696 C   0  0  0  0  0  0  0  0  0  0  0  0
   53.5565  -10.6709  -35.6367 C   0  0  0  0  0  0  0  0  0  0  0  0
   55.0727  -10.6725  -35.6419 C   0  0  0  0  0  0  0  0  0  0  0  0
   55.5832  -11.0822  -37.0095 C   0  0  0  0  0  0  0  0  0  0  0  0
   57.0993  -11.0857  -37.0141 C   0  0  0  0  0  0  0  0  0  0  0  0
   57.6098  -11.4954  -38.3817 C   0  0  0  0  0  0  0  0  0  0  0  0
   59.1260  -11.4970  -38.3869 C   0  0  0  0  0  0  0  0  0  0  0  0
   59.6365  -11.9066  -39.7545 C   0  0  0  0  0  0  0  0  0  0  0  0
   61.1527  -11.9082  -39.7597 C   0  0  0  0  0  0  0  0  0  0  0  0
   61.6631  -12.3179  -41.1273 C   0  0  0  0  0  0  0  0  0  0  0  0
   63.1793  -12.3195  -41.1325 C   0  0  0  0  0  0  0  0  0  0  0  0
   63.6898  -12.7292  -42.5001 C   0  0  0  0  0  0  0  0  0  0  0  0
   65.2060  -12.7307  -42.5053 C   0  0  0  0  0  0  0  0  0  0  0  0
   65.7165  -13.1404  -43.8729 C   0  0  0  0  0  0  0  0  0  0  0  0
   67.2326  -13.1420  -43.8781 C   0  0  0  0  0  0  0  0  0  0  0  0
   67.7431  -13.5517  -45.2457 C   0  0  0  0  0  0  0  0  0  0  0  0
   69.2593  -13.5552  -45.2503 C   0  0  0  0  0  0  0  0  0  0  0  0
   69.7698  -13.9649  -46.6179 C   0  0  0  0  0  0  0  0  0  0  0  0
   71.2859  -13.9684  -46.6225 C   0  0  0  0  0  0  0  0  0  0  0  0
   71.7964  -14.3781  -47.9901 C   0  0  0  0  0  0  0  0  0  0  0  0
   73.3126  -14.3816  -47.9947 C   0  0  0  0  0  0  0  0  0  0  0  0
   73.8231  -14.7913  -49.3623 C   0  0  0  0  0  0  0  0  0  0  0  0
   75.3393  -14.7967  -49.3664 C   0  0  0  0  0  0  0  0  0  0  0  0
   75.8500  -15.2064  -50.7341 C   0  0  0  0  0  0  0  0  0  0  0  0
   77.3670  -15.2118  -50.7378 C   0  0  0  0  0  0  0  0  0  0  0  0
   77.8791  -15.6235  -52.1052 C   0  0  0  0  0  0  0  0  0  0  0  0
   79.3980  -15.6283  -52.1141 C   0  0  0  0  0  0  0  0  0  0  0  0
   79.9056  -16.0392  -53.4789 C   0  0  0  0  0  0  0  0  0  0  0  0
   22.5255  -24.3429   -1.0268 H   0  0  0  0  0  0  0  0  0  0  0  0
   23.8189  -24.6840   -2.1949 H   0  0  0  0  0  0  0  0  0  0  0  0
   22.2434  -25.4891   -2.3537 H   0  0  0  0  0  0  0  0  0  0  0  0
   22.7377  -22.4841   -2.6489 H   0  0  0  0  0  0  0  0  0  0  0  0
   21.1667  -23.2869   -2.8072 H   0  0  0  0  0  0  0  0  0  0  0  0
   22.0509  -24.6459   -4.7070 H   0  0  0  0  0  0  0  0  0  0  0  0
   23.6235  -23.8464   -4.5489 H   0  0  0  0  0  0  0  0  0  0  0  0
   22.5568  -21.6406   -4.9965 H   0  0  0  0  0  0  0  0  0  0  0  0
   20.9757  -22.4362   -5.1558 H   0  0  0  0  0  0  0  0  0  0  0  0
   21.8679  -23.7173   -6.9923 H   0  0  0  0  0  0  0  0  0  0  0  0
   22.3417  -20.9921   -7.1113 H   0  0  0  0  0  0  0  0  0  0  0  0
   21.7092  -22.9341   -9.1224 H   0  0  0  0  0  0  0  0  0  0  0  0
   20.6961  -20.9075   -9.5782 H   0  0  0  0  0  0  0  0  0  0  0  0
   22.1273  -19.5633   -8.3816 H   0  0  0  0  0  0  0  0  0  0  0  0
   24.0553  -20.7212   -8.8901 H   0  0  0  0  0  0  0  0  0  0  0  0
   23.5599  -21.1594  -11.0598 H   0  0  0  0  0  0  0  0  0  0  0  0
   22.5561  -19.1230  -11.5793 H   0  0  0  0  0  0  0  0  0  0  0  0
   23.9162  -17.7914  -10.3562 H   0  0  0  0  0  0  0  0  0  0  0  0
   25.9556  -18.8647  -10.8351 H   0  0  0  0  0  0  0  0  0  0  0  0
   25.5239  -19.3430  -13.1191 H   0  0  0  0  0  0  0  0  0  0  0  0
   24.4771  -17.3459  -13.6317 H   0  0  0  0  0  0  0  0  0  0  0  0
   25.8597  -15.9570  -12.4166 H   0  0  0  0  0  0  0  0  0  0  0  0
   27.8535  -17.0127  -12.8438 H   0  0  0  0  0  0  0  0  0  0  0  0
   27.4602  -17.5842  -15.0077 H   0  0  0  0  0  0  0  0  0  0  0  0
   26.3975  -15.5622  -15.6308 H   0  0  0  0  0  0  0  0  0  0  0  0
   27.7269  -14.1413  -14.4218 H   0  0  0  0  0  0  0  0  0  0  0  0
   29.7483  -15.1288  -14.7993 H   0  0  0  0  0  0  0  0  0  0  0  0
   29.4104  -15.7630  -16.9580 H   0  0  0  0  0  0  0  0  0  0  0  0
   28.2802  -13.8398  -17.6221 H   0  0  0  0  0  0  0  0  0  0  0  0
   29.5388  -12.2883  -16.3743 H   0  0  0  0  0  0  0  0  0  0  0  0
   31.6336  -13.2555  -16.7566 H   0  0  0  0  0  0  0  0  0  0  0  0
   31.3102  -13.8501  -18.9580 H   0  0  0  0  0  0  0  0  0  0  0  0
   30.1645  -11.9676  -19.6332 H   0  0  0  0  0  0  0  0  0  0  0  0
   31.3905  -10.4450  -18.4262 H   0  0  0  0  0  0  0  0  0  0  0  0
   33.4684  -11.3640  -18.7321 H   0  0  0  0  0  0  0  0  0  0  0  0
   33.1951  -11.9895  -20.9111 H   0  0  0  0  0  0  0  0  0  0  0  0
   32.0430  -10.1514  -21.6177 H   0  0  0  0  0  0  0  0  0  0  0  0
   33.1780   -8.5768  -20.4197 H   0  0  0  0  0  0  0  0  0  0  0  0
   35.2723   -9.4706  -20.6750 H   0  0  0  0  0  0  0  0  0  0  0  0
   35.0521  -10.1282  -22.8568 H   0  0  0  0  0  0  0  0  0  0  0  0
   33.8992   -8.3084  -23.5922 H   0  0  0  0  0  0  0  0  0  0  0  0
   35.0081   -6.6250  -22.3485 H   0  0  0  0  0  0  0  0  0  0  0  0
   35.0011   -6.2336  -24.0517 H   0  0  0  0  0  0  0  0  0  0  0  0
   37.1538   -7.6147  -22.6174 H   0  0  0  0  0  0  0  0  0  0  0  0
   36.9676   -6.6518  -25.4078 H   0  0  0  0  0  0  0  0  0  0  0  0
   36.9865   -8.3507  -24.9107 H   0  0  0  0  0  0  0  0  0  0  0  0
   39.2299   -8.0524  -23.8998 H   0  0  0  0  0  0  0  0  0  0  0  0
   39.2295   -6.3538  -24.4103 H   0  0  0  0  0  0  0  0  0  0  0  0
   38.9937   -7.0727  -26.7916 H   0  0  0  0  0  0  0  0  0  0  0  0
   38.9937   -8.7678  -26.2811 H   0  0  0  0  0  0  0  0  0  0  0  0
   41.2586   -8.4660  -25.2776 H   0  0  0  0  0  0  0  0  0  0  0  0
   41.2586   -6.7701  -25.7882 H   0  0  0  0  0  0  0  0  0  0  0  0
   41.0227   -7.4864  -28.1670 H   0  0  0  0  0  0  0  0  0  0  0  0
   41.0227   -9.1823  -27.6564 H   0  0  0  0  0  0  0  0  0  0  0  0
   43.2861   -8.8793  -26.6504 H   0  0  0  0  0  0  0  0  0  0  0  0
   43.2861   -7.1835  -27.1610 H   0  0  0  0  0  0  0  0  0  0  0  0
   43.0497   -7.8997  -29.5396 H   0  0  0  0  0  0  0  0  0  0  0  0
   43.0497   -9.5956  -29.0289 H   0  0  0  0  0  0  0  0  0  0  0  0
   45.3129   -9.2926  -28.0226 H   0  0  0  0  0  0  0  0  0  0  0  0
   45.3129   -7.5967  -28.5333 H   0  0  0  0  0  0  0  0  0  0  0  0
   45.0764   -8.3129  -30.9118 H   0  0  0  0  0  0  0  0  0  0  0  0
   45.0764  -10.0087  -30.4012 H   0  0  0  0  0  0  0  0  0  0  0  0
   47.3395   -9.7057  -29.3948 H   0  0  0  0  0  0  0  0  0  0  0  0
   47.3396   -8.0099  -29.9055 H   0  0  0  0  0  0  0  0  0  0  0  0
   47.1042   -8.7252  -32.2838 H   0  0  0  0  0  0  0  0  0  0  0  0
   47.1019  -10.4213  -31.7740 H   0  0  0  0  0  0  0  0  0  0  0  0
   49.3650  -10.1217  -30.7667 H   0  0  0  0  0  0  0  0  0  0  0  0
   49.3674   -8.4256  -31.2765 H   0  0  0  0  0  0  0  0  0  0  0  0
   49.1321   -9.1395  -33.6553 H   0  0  0  0  0  0  0  0  0  0  0  0
   49.1274  -10.8359  -33.1462 H   0  0  0  0  0  0  0  0  0  0  0  0
   51.3906  -10.5385  -32.1370 H   0  0  0  0  0  0  0  0  0  0  0  0
   51.3952   -8.8429  -32.6483 H   0  0  0  0  0  0  0  0  0  0  0  0
   51.1575   -9.5604  -35.0269 H   0  0  0  0  0  0  0  0  0  0  0  0
   51.1552  -11.2558  -34.5147 H   0  0  0  0  0  0  0  0  0  0  0  0
   53.4184  -10.9558  -33.5087 H   0  0  0  0  0  0  0  0  0  0  0  0
   53.4207   -9.2597  -34.0186 H   0  0  0  0  0  0  0  0  0  0  0  0
   53.1830   -9.9753  -36.3978 H   0  0  0  0  0  0  0  0  0  0  0  0
   53.1830  -11.6711  -35.8871 H   0  0  0  0  0  0  0  0  0  0  0  0
   55.4461  -11.3692  -34.8817 H   0  0  0  0  0  0  0  0  0  0  0  0
   55.4462   -9.6727  -35.3901 H   0  0  0  0  0  0  0  0  0  0  0  0
   55.2108  -10.3846  -37.7694 H   0  0  0  0  0  0  0  0  0  0  0  0
   55.2085  -12.0815  -37.2620 H   0  0  0  0  0  0  0  0  0  0  0  0
   57.4717  -11.7832  -36.2542 H   0  0  0  0  0  0  0  0  0  0  0  0
   57.4740  -10.0864  -36.7616 H   0  0  0  0  0  0  0  0  0  0  0  0
   57.2364  -10.7987  -39.1418 H   0  0  0  0  0  0  0  0  0  0  0  0
   57.2363  -12.4952  -38.6336 H   0  0  0  0  0  0  0  0  0  0  0  0
   59.4995  -12.1937  -37.6268 H   0  0  0  0  0  0  0  0  0  0  0  0
   59.4995  -10.4971  -38.1350 H   0  0  0  0  0  0  0  0  0  0  0  0
   59.2630  -11.2099  -40.5146 H   0  0  0  0  0  0  0  0  0  0  0  0
   59.2630  -12.9065  -40.0064 H   0  0  0  0  0  0  0  0  0  0  0  0
   61.5261  -12.6049  -38.9996 H   0  0  0  0  0  0  0  0  0  0  0  0
   61.5262  -10.9083  -39.5078 H   0  0  0  0  0  0  0  0  0  0  0  0
   61.2897  -11.6212  -41.8874 H   0  0  0  0  0  0  0  0  0  0  0  0
   61.2896  -13.3178  -41.3791 H   0  0  0  0  0  0  0  0  0  0  0  0
   63.5528  -13.0162  -40.3724 H   0  0  0  0  0  0  0  0  0  0  0  0
   63.5528  -11.3196  -40.8806 H   0  0  0  0  0  0  0  0  0  0  0  0
   63.3163  -12.0324  -43.2602 H   0  0  0  0  0  0  0  0  0  0  0  0
   63.3163  -13.7290  -42.7519 H   0  0  0  0  0  0  0  0  0  0  0  0
   65.5795  -13.4275  -41.7452 H   0  0  0  0  0  0  0  0  0  0  0  0
   65.5795  -11.7309  -42.2534 H   0  0  0  0  0  0  0  0  0  0  0  0
   65.3430  -12.4437  -44.6330 H   0  0  0  0  0  0  0  0  0  0  0  0
   65.3430  -14.1403  -44.1247 H   0  0  0  0  0  0  0  0  0  0  0  0
   67.6061  -13.8387  -43.1180 H   0  0  0  0  0  0  0  0  0  0  0  0
   67.6062  -12.1421  -43.6262 H   0  0  0  0  0  0  0  0  0  0  0  0
   67.3708  -12.8541  -46.0056 H   0  0  0  0  0  0  0  0  0  0  0  0
   67.3685  -14.5510  -45.4982 H   0  0  0  0  0  0  0  0  0  0  0  0
   69.6316  -14.2527  -44.4904 H   0  0  0  0  0  0  0  0  0  0  0  0
   69.6340  -12.5559  -44.9978 H   0  0  0  0  0  0  0  0  0  0  0  0
   69.3975  -13.2673  -47.3778 H   0  0  0  0  0  0  0  0  0  0  0  0
   69.3951  -14.9641  -46.8704 H   0  0  0  0  0  0  0  0  0  0  0  0
   71.6583  -14.6659  -45.8626 H   0  0  0  0  0  0  0  0  0  0  0  0
   71.6606  -12.9691  -46.3700 H   0  0  0  0  0  0  0  0  0  0  0  0
   71.4241  -13.6805  -48.7500 H   0  0  0  0  0  0  0  0  0  0  0  0
   71.4218  -15.3773  -48.2426 H   0  0  0  0  0  0  0  0  0  0  0  0
   73.6849  -15.0791  -47.2348 H   0  0  0  0  0  0  0  0  0  0  0  0
   73.6873  -13.3823  -47.7423 H   0  0  0  0  0  0  0  0  0  0  0  0
   73.4519  -14.0929  -50.1220 H   0  0  0  0  0  0  0  0  0  0  0  0
   73.4473  -15.7899  -49.6154 H   0  0  0  0  0  0  0  0  0  0  0  0
   75.7104  -15.4951  -48.6066 H   0  0  0  0  0  0  0  0  0  0  0  0
   75.7151  -13.7980  -49.1133 H   0  0  0  0  0  0  0  0  0  0  0  0
   75.4787  -14.5080  -51.4937 H   0  0  0  0  0  0  0  0  0  0  0  0
   75.4740  -16.2050  -50.9870 H   0  0  0  0  0  0  0  0  0  0  0  0
   77.7372  -15.9091  -49.9771 H   0  0  0  0  0  0  0  0  0  0  0  0
   77.7419  -14.2126  -50.4861 H   0  0  0  0  0  0  0  0  0  0  0  0
   77.5046  -14.9270  -52.8654 H   0  0  0  0  0  0  0  0  0  0  0  0
   77.5022  -16.6226  -52.3557 H   0  0  0  0  0  0  0  0  0  0  0  0
   79.7721  -16.3258  -51.3557 H   0  0  0  0  0  0  0  0  0  0  0  0
   79.7745  -14.6292  -51.8656 H   0  0  0  0  0  0  0  0  0  0  0  0
   79.5487  -17.0426  -53.7328 H   0  0  0  0  0  0  0  0  0  0  0  0
   80.9979  -16.0436  -53.4886 H   0  0  0  0  0  0  0  0  0  0  0  0
   79.5511  -15.3412  -54.2443 H   0  0  0  0  0  0  0  0  0  0  0  0
  1  2  1  0  0  0  0
  1 82  1  0  0  0  0
  1 83  1  0  0  0  0
  1 84  1  0  0  0  0
  2  3  1  0  0  0  0
  2 85  1  0  0  0  0
  2 86  1  0  0  0  0
  3  4  1  0  0  0  0
  3 87  1  0  0  0  0
  3 88  1  0  0  0  0
  4  5  1  0  0  0  0
  4 89  1  0  0  0  0
  4 90  1  0  0  0  0
  5  6  1  0  0  0  0
  5 91  1  0  0  0  0
  6  7  1  0  0  0  0
  6 92  1  0  0  0  0
  7  8  1  0  0  0  0
  7 93  1  0  0  0  0
  8  9  1  0  0  0  0
  8 94  1  0  0  0  0
  9 10  1  0  0  0  0
  9 95  1  0  0  0  0
 10 11  1  0  0  0  0
 10 96  1  0  0  0  0
 11 12  1  0  0  0  0
 11 97  1  0  0  0  0
 12 13  1  0  0  0  0
 12 98  1  0  0  0  0
 13 14  1  0  0  0  0
 13 99  1  0  0  0  0
 14 15  1  0  0  0  0
 14100  1  0  0  0  0
 15 16  1  0  0  0  0
 15101  1  0  0  0  0
 16 17  1  0  0  0  0
 16102  1  0  0  0  0
 17 18  1  0  0  0  0
 17103  1  0  0  0  0
 18 19  1  0  0  0  0
 18104  1  0  0  0  0
 19 20  1  0  0  0  0
 19105  1  0  0  0  0
 20 21  1  0  0  0  0
 20106  1  0  0  0  0
 21 22  1  0  0  0  0
 21107  1  0  0  0  0
 22 23  1  0  0  0  0
 22108  1  0  0  0  0
 23 24  1  0  0  0  0
 23109  1  0  0  0  0
 24 25  1  0  0  0  0
 24110  1  0  0  0  0
 25 26  1  0  0  0  0
 25111  1  0  0  0  0
 26 27  1  0  0  0  0
 26112  1  0  0  0  0
 27 28  1  0  0  0  0
 27113  1  0  0  0  0
 28 29  1  0  0  0  0
 28114  1  0  0  0  0
 29 30  1  0  0  0  0
 29115  1  0  0  0  0
 30 31  1  0  0  0  0
 30116  1  0  0  0  0
 31 32  1  0  0  0  0
 31117  1  0  0  0  0
 32 33  1  0  0  0  0
 32118  1  0  0  0  0
 33 34  1  0  0  0  0
 33119  1  0  0  0  0
 34 35  1  0  0  0  0
 34120  1  0  0  0  0
 35 36  1  0  0  0  0
 35121  1  0  0  0  0
 36 37  1  0  0  0  0
 36122  1  0  0  0  0
 37 38  1  0  0  0  0
 37123  1  0  0  0  0
 37124  1  0  0  0  0
 38 39  1  0  0  0  0
 38125  1  0  0  0  0
 39 40  1  0  0  0  0
 39126  1  0  0  0  0
 39127  1  0  0  0  0
 40 41  1  0  0  0  0
 40128  1  0  0  0  0
 40129  1  0  0  0  0
 41 42  1  0  0  0  0
 41130  1  0  0  0  0
 41131  1  0  0  0  0
 42 43  1  0  0  0  0
 42132  1  0  0  0  0
 42133  1  0  0  0  0
 43 44  1  0  0  0  0
 43134  1  0  0  0  0
 43135  1  0  0  0  0
 44 45  1  0  0  0  0
 44136  1  0  0  0  0
 44137  1  0  0  0  0
 45 46  1  0  0  0  0
 45138  1  0  0  0  0
 45139  1  0  0  0  0
 46 47  1  0  0  0  0
 46140  1  0  0  0  0
 46141  1  0  0  0  0
 47 48  1  0  0  0  0
 47142  1  0  0  0  0
 47143  1  0  0  0  0
 48 49  1  0  0  0  0
 48144  1  0  0  0  0
 48145  1  0  0  0  0
 49 50  1  0  0  0  0
 49146  1  0  0  0  0
 49147  1  0  0  0  0
 50 51  1  0  0  0  0
 50148  1  0  0  0  0
 50149  1  0  0  0  0
 51 52  1  0  0  0  0
 51150  1  0  0  0  0
 51151  1  0  0  0  0
 52 53  1  0  0  0  0
 52152  1  0  0  0  0
 52153  1  0  0  0  0
 53 54  1  0  0  0  0
 53154  1  0  0  0  0
 53155  1  0  0  0  0
 54 55  1  0  0  0  0
 54156  1  0  0  0  0
 54157  1  0  0  0  0
 55 56  1  0  0  0  0
 55158  1  0  0  0  0
 55159  1  0  0  0  0
 56 57  1  0  0  0  0
 56160  1  0  0  0  0
 56161  1  0  0  0  0
 57 58  1  0  0  0  0
 57162  1  0  0  0  0
 57163  1  0  0  0  0
 58 59  1  0  0  0  0
 58164  1  0  0  0  0
 58165  1  0  0  0  0
 59 60  1  0  0  0  0
 59166  1  0  0  0  0
 59167  1  0  0  0  0
 60 61  1  0  0  0  0
 60168  1  0  0  0  0
 60169  1  0  0  0  0
 61 62  1  0  0  0  0
 61170  1  0  0  0  0
 61171  1  0  0  0  0
 62 63  1  0  0  0  0
 62172  1  0  0  0  0
 62173  1  0  0  0  0
 63 64  1  0  0  0  0
 63174  1  0  0  0  0
 63175  1  0  0  0  0
 64 65  1  0  0  0  0
 64176  1  0  0  0  0
 64177  1  0  0  0  0
 65 66  1  0  0  0  0
 65178  1  0  0  0  0
 65179  1  0  0  0  0
 66 67  1  0  0  0  0
 66180  1  0  0  0  0
 66181  1  0  0  0  0
 67 68  1  0  0  0  0
 67182  1  0  0  0  0
 67183  1  0  0  0  0
 68 69  1  0  0  0  0
 68184  1  0  0  0  0
 68185  1  0  0  0  0
 69 70  1  0  0  0  0
 69186  1  0  0  0  0
 69187  1  0  0  0  0
 70 71  1  0  0  0  0
 70188  1  0  0  0  0
 70189  1  0  0  0  0
 71 72  1  0  0  0  0
 71190  1  0  0  0  0
 71191  1  0  0  0  0
 72 73  1  0  0  0  0
 72192  1  0  0  0  0
 72193  1  0  0  0  0
 73 74  1  0  0  0  0
 73194  1  0  0  0  0
 73195  1  0  0  0  0
 74 75  1  0  0  0  0
 74196  1  0  0  0  0
 74197  1  0  0  0  0
 75 76  1  0  0  0  0
 75198  1  0  0  0  0
 75199  1  0  0  0  0
 76 77  1  0  0  0  0
 76200  1  0  0  0  0
 76201  1  0  0  0  0
 77 78  1  0  0  0  0
 77202  1  0  0  0  0
 77203  1  0  0  0  0
 78 79  1  0  0  0  0
 78204  1  0  0  0  0
 78205  1  0  0  0  0
 79 80  1  0  0  0  0
 79206  1  0  0  0  0
 79207  1  0  0  0  0
 80 81  1  0  0  0  0
 80208  1  0  0  0  0
 80209  1  0  0  0  0
 81210  1  0  0  0  0
 81211  1  0  0  0  0
 81212  1  0  0  0  0
M  END
$$$$
