
 OpenBabel04232216483D

 88 88  0  0  0  0  0  0  0  0999 V2000
    1.3118    7.7371   -0.9847 C   0  0  0  0  0  0  0  0  0  0  0  0
    2.3865    8.3556   -0.1384 C   0  0  0  0  0  0  0  0  0  0  0  0
    2.0094    8.6254    1.2383 C   0  0  0  0  0  0  0  0  0  0  0  0
    2.5078    7.9636    2.2908 C   0  0  0  0  0  0  0  0  0  0  0  0
    3.4956    6.9030    2.1863 C   0  0  0  0  0  0  0  0  0  0  0  0
    2.9913    5.5202    2.5087 C   0  0  0  0  0  0  0  0  0  0  0  0
    3.1065    5.2374    3.9942 C   0  0  0  0  0  0  0  0  0  0  0  0
    2.5398    3.8643    4.3511 C   0  0  0  0  0  0  0  0  0  0  0  0
    2.6750    3.5742    5.8436 C   0  0  0  0  0  0  0  0  0  0  0  0
    1.9174    4.5996    6.6786 C   0  0  0  0  0  0  0  0  0  0  0  0
    2.0829    4.3520    8.1648 C   0  0  0  0  0  0  0  0  0  0  0  0
    1.3464    5.4448    8.9250 C   0  0  0  0  0  0  0  0  0  0  0  0
    1.5078    5.2458   10.4178 C   0  0  0  0  0  0  0  0  0  0  0  0
    0.7538    6.3298   11.1667 C   0  0  0  0  0  0  0  0  0  0  0  0
    0.9083    6.1180   12.6602 C   0  0  0  0  0  0  0  0  0  0  0  0
    0.1499    7.1899   13.4197 C   0  0  0  0  0  0  0  0  0  0  0  0
    0.3098    6.9683   14.9123 C   0  0  0  0  0  0  0  0  0  0  0  0
   -0.4450    8.0374   15.6801 C   0  0  0  0  0  0  0  0  0  0  0  0
   -0.2837    7.8131   17.1728 C   0  0  0  0  0  0  0  0  0  0  0  0
   -1.0387    8.8807   17.9448 C   0  0  0  0  0  0  0  0  0  0  0  0
   -0.8783    8.6552   19.4387 C   0  0  0  0  0  0  0  0  0  0  0  0
   -1.6326    9.7229   20.2139 C   0  0  0  0  0  0  0  0  0  0  0  0
   -1.4737    9.4999   21.7102 C   0  0  0  0  0  0  0  0  0  0  0  0
   -2.2289   10.5681   22.4875 C   0  0  0  0  0  0  0  0  0  0  0  0
   -2.0722   10.3515   23.9872 C   0  0  0  0  0  0  0  0  0  0  0  0
   -2.8291   11.4224   24.7641 C   0  0  0  0  0  0  0  0  0  0  0  0
   -2.6804   11.2144   26.2673 C   0  0  0  0  0  0  0  0  0  0  0  0
   -3.4354   12.2818   27.0399 C   0  0  0  0  0  0  0  0  0  0  0  0
    4.7524    7.1122    1.7544 C   0  0  0  0  0  0  0  0  0  0  0  0
    5.2614    8.3725    1.2537 C   0  0  0  0  0  0  0  0  0  0  0  0
    4.7605    9.0198    0.1861 C   0  0  0  0  0  0  0  0  0  0  0  0
    3.6299    8.5580   -0.6077 C   0  0  0  0  0  0  0  0  0  0  0  0
    0.3458    7.7124   -0.4679 H   0  0  0  0  0  0  0  0  0  0  0  0
    1.5759    6.6984   -1.2165 H   0  0  0  0  0  0  0  0  0  0  0  0
    1.1775    8.2861   -1.9201 H   0  0  0  0  0  0  0  0  0  0  0  0
    1.2562    9.3902    1.3969 H   0  0  0  0  0  0  0  0  0  0  0  0
    2.1560    8.2087    3.2897 H   0  0  0  0  0  0  0  0  0  0  0  0
    3.5519    4.7673    1.9388 H   0  0  0  0  0  0  0  0  0  0  0  0
    1.9453    5.4228    2.1841 H   0  0  0  0  0  0  0  0  0  0  0  0
    2.5638    6.0254    4.5268 H   0  0  0  0  0  0  0  0  0  0  0  0
    4.1559    5.2951    4.3096 H   0  0  0  0  0  0  0  0  0  0  0  0
    3.0683    3.0860    3.7878 H   0  0  0  0  0  0  0  0  0  0  0  0
    1.4829    3.8086    4.0605 H   0  0  0  0  0  0  0  0  0  0  0  0
    3.7356    3.5749    6.1228 H   0  0  0  0  0  0  0  0  0  0  0  0
    2.2881    2.5704    6.0531 H   0  0  0  0  0  0  0  0  0  0  0  0
    0.8544    4.5845    6.4085 H   0  0  0  0  0  0  0  0  0  0  0  0
    2.2860    5.6087    6.4782 H   0  0  0  0  0  0  0  0  0  0  0  0
    3.1473    4.3700    8.4297 H   0  0  0  0  0  0  0  0  0  0  0  0
    1.6895    3.3665    8.4338 H   0  0  0  0  0  0  0  0  0  0  0  0
    0.2825    5.4333    8.6575 H   0  0  0  0  0  0  0  0  0  0  0  0
    1.7379    6.4301    8.6403 H   0  0  0  0  0  0  0  0  0  0  0  0
    2.5710    5.2775   10.6855 H   0  0  0  0  0  0  0  0  0  0  0  0
    1.1274    4.2584   10.7046 H   0  0  0  0  0  0  0  0  0  0  0  0
   -0.3083    6.3056   10.8928 H   0  0  0  0  0  0  0  0  0  0  0  0
    1.1382    7.3183   10.8862 H   0  0  0  0  0  0  0  0  0  0  0  0
    1.9705    6.1472   12.9328 H   0  0  0  0  0  0  0  0  0  0  0  0
    0.5296    5.1263   12.9368 H   0  0  0  0  0  0  0  0  0  0  0  0
   -0.9126    7.1604   13.1481 H   0  0  0  0  0  0  0  0  0  0  0  0
    0.5280    8.1822   13.1450 H   0  0  0  0  0  0  0  0  0  0  0  0
    1.3730    6.9945   15.1814 H   0  0  0  0  0  0  0  0  0  0  0  0
   -0.0689    5.9752   15.1844 H   0  0  0  0  0  0  0  0  0  0  0  0
   -1.5079    8.0096   15.4103 H   0  0  0  0  0  0  0  0  0  0  0  0
   -0.0663    9.0302   15.4074 H   0  0  0  0  0  0  0  0  0  0  0  0
    0.7797    7.8400   17.4410 H   0  0  0  0  0  0  0  0  0  0  0  0
   -0.6612    6.8191   17.4429 H   0  0  0  0  0  0  0  0  0  0  0  0
   -2.1015    8.8539   17.6744 H   0  0  0  0  0  0  0  0  0  0  0  0
   -0.6599    9.8738   17.6735 H   0  0  0  0  0  0  0  0  0  0  0  0
    0.1852    8.6805   19.7062 H   0  0  0  0  0  0  0  0  0  0  0  0
   -1.2566    7.6611   19.7071 H   0  0  0  0  0  0  0  0  0  0  0  0
   -2.6953    9.6965   19.9432 H   0  0  0  0  0  0  0  0  0  0  0  0
   -1.2535   10.7157   19.9421 H   0  0  0  0  0  0  0  0  0  0  0  0
   -0.4102    9.5255   21.9774 H   0  0  0  0  0  0  0  0  0  0  0  0
   -1.8517    8.5058   21.9786 H   0  0  0  0  0  0  0  0  0  0  0  0
   -3.2914   10.5401   22.2163 H   0  0  0  0  0  0  0  0  0  0  0  0
   -1.8509   11.5607   22.2132 H   0  0  0  0  0  0  0  0  0  0  0  0
   -1.0088   10.3785   24.2549 H   0  0  0  0  0  0  0  0  0  0  0  0
   -2.4497    9.3579   24.2579 H   0  0  0  0  0  0  0  0  0  0  0  0
   -3.8906   11.3945   24.4891 H   0  0  0  0  0  0  0  0  0  0  0  0
   -2.4499   12.4139   24.4875 H   0  0  0  0  0  0  0  0  0  0  0  0
   -1.6204   11.2451   26.5450 H   0  0  0  0  0  0  0  0  0  0  0  0
   -3.0614   10.2251   26.5462 H   0  0  0  0  0  0  0  0  0  0  0  0
   -3.0547   13.2794   26.7990 H   0  0  0  0  0  0  0  0  0  0  0  0
   -3.3219   12.1223   28.1158 H   0  0  0  0  0  0  0  0  0  0  0  0
   -4.5029   12.2545   26.7998 H   0  0  0  0  0  0  0  0  0  0  0  0
    5.4652    6.2910    1.7359 H   0  0  0  0  0  0  0  0  0  0  0  0
    6.1379    8.7615    1.7638 H   0  0  0  0  0  0  0  0  0  0  0  0
    5.2430    9.9303   -0.1570 H   0  0  0  0  0  0  0  0  0  0  0  0
    3.8615    8.3331   -1.6448 H   0  0  0  0  0  0  0  0  0  0  0  0
  1  2  1  0  0  0  0
  1 33  1  0  0  0  0
  1 34  1  0  0  0  0
  1 35  1  0  0  0  0
  2  3  1  0  0  0  0
  2 32  2  0  0  0  0
  3  4  2  0  0  0  0
  3 36  1  0  0  0  0
  4  5  1  0  0  0  0
  4 37  1  0  0  0  0
  5  6  1  0  0  0  0
  5 29  2  0  0  0  0
  6  7  1  0  0  0  0
  6 38  1  0  0  0  0
  6 39  1  0  0  0  0
  7  8  1  0  0  0  0
  7 40  1  0  0  0  0
  7 41  1  0  0  0  0
  8  9  1  0  0  0  0
  8 42  1  0  0  0  0
  8 43  1  0  0  0  0
  9 10  1  0  0  0  0
  9 44  1  0  0  0  0
  9 45  1  0  0  0  0
 10 11  1  0  0  0  0
 10 46  1  0  0  0  0
 10 47  1  0  0  0  0
 11 12  1  0  0  0  0
 11 48  1  0  0  0  0
 11 49  1  0  0  0  0
 12 13  1  0  0  0  0
 12 50  1  0  0  0  0
 12 51  1  0  0  0  0
 13 14  1  0  0  0  0
 13 52  1  0  0  0  0
 13 53  1  0  0  0  0
 14 15  1  0  0  0  0
 14 54  1  0  0  0  0
 14 55  1  0  0  0  0
 15 16  1  0  0  0  0
 15 56  1  0  0  0  0
 15 57  1  0  0  0  0
 16 17  1  0  0  0  0
 16 58  1  0  0  0  0
 16 59  1  0  0  0  0
 17 18  1  0  0  0  0
 17 60  1  0  0  0  0
 17 61  1  0  0  0  0
 18 19  1  0  0  0  0
 18 62  1  0  0  0  0
 18 63  1  0  0  0  0
 19 20  1  0  0  0  0
 19 64  1  0  0  0  0
 19 65  1  0  0  0  0
 20 21  1  0  0  0  0
 20 66  1  0  0  0  0
 20 67  1  0  0  0  0
 21 22  1  0  0  0  0
 21 68  1  0  0  0  0
 21 69  1  0  0  0  0
 22 23  1  0  0  0  0
 22 70  1  0  0  0  0
 22 71  1  0  0  0  0
 23 24  1  0  0  0  0
 23 72  1  0  0  0  0
 23 73  1  0  0  0  0
 24 25  1  0  0  0  0
 24 74  1  0  0  0  0
 24 75  1  0  0  0  0
 25 26  1  0  0  0  0
 25 76  1  0  0  0  0
 25 77  1  0  0  0  0
 26 27  1  0  0  0  0
 26 78  1  0  0  0  0
 26 79  1  0  0  0  0
 27 28  1  0  0  0  0
 27 80  1  0  0  0  0
 27 81  1  0  0  0  0
 28 82  1  0  0  0  0
 28 83  1  0  0  0  0
 28 84  1  0  0  0  0
 29 30  1  0  0  0  0
 29 85  1  0  0  0  0
 30 31  2  0  0  0  0
 30 86  1  0  0  0  0
 31 32  1  0  0  0  0
 31 87  1  0  0  0  0
 32 88  1  0  0  0  0
M  END
$$$$
