
 OpenBabel04232216423D

 65 65  0  0  0  0  0  0  0  0999 V2000
    7.4239    6.1476   -1.9410 C   0  0  0  0  0  0  0  0  0  0  0  0
    5.8289    4.8085   -1.9575 C   0  0  0  0  0  0  0  0  0  0  0  0
    4.6228    3.7134   -0.9736 C   0  0  0  0  0  0  0  0  0  0  0  0
    3.2049    3.4110   -1.1072 C   0  0  0  0  0  0  0  0  0  0  0  0
    1.7642    2.4868   -0.6929 C   0  0  0  0  0  0  0  0  0  0  0  0
    1.4489    1.1410    0.0765 C   0  0  0  0  0  0  0  0  0  0  0  0
    5.4658    2.8012    0.0067 C   0  0  0  0  0  0  0  0  0  0  0  0
    5.5460    1.2580   -0.0245 C   0  0  0  0  0  0  0  0  0  0  0  0
    6.6300    3.4189    0.3366 C   0  0  0  0  0  0  0  0  0  0  0  0
    7.8070    2.9777   -0.4694 C   0  0  0  0  0  0  0  0  0  0  0  0
    8.6656    3.8310   -1.0381 C   0  0  0  0  0  0  0  0  0  0  0  0
    9.3621    3.5918   -2.2966 C   0  0  0  0  0  0  0  0  0  0  0  0
    9.6312    4.6129   -3.1456 C   0  0  0  0  0  0  0  0  0  0  0  0
   10.7483    5.3921   -2.7686 C   0  0  0  0  0  0  0  0  0  0  0  0
   11.1663    6.4098   -3.4992 C   0  0  0  0  0  0  0  0  0  0  0  0
   12.4746    6.7568   -3.1573 C   0  0  0  0  0  0  0  0  0  0  0  0
   13.1876    7.4789   -3.9985 C   0  0  0  0  0  0  0  0  0  0  0  0
   14.5566    7.5052   -3.6622 C   0  0  0  0  0  0  0  0  0  0  0  0
   15.3746    8.2468   -4.3839 C   0  0  0  0  0  0  0  0  0  0  0  0
   16.6560    8.6385   -3.8567 C   0  0  0  0  0  0  0  0  0  0  0  0
   16.8433    9.9481   -4.1082 C   0  0  0  0  0  0  0  0  0  0  0  0
   15.8253   10.9345   -3.4496 C   0  0  0  0  0  0  0  0  0  0  0  0
   14.3945   10.6819   -3.5205 C   0  0  0  0  0  0  0  0  0  0  0  0
   12.9656    9.9241   -2.6645 C   0  0  0  0  0  0  0  0  0  0  0  0
   11.4475    9.7542   -3.0640 C   0  0  0  0  0  0  0  0  0  0  0  0
   11.5261   11.0972   -4.1622 C   0  0  0  0  0  0  0  0  0  0  0  0
    9.7679    8.7490   -2.8929 C   0  0  0  0  0  0  0  0  0  0  0  0
    8.4274    7.6762   -2.5161 C   0  0  0  0  0  0  0  0  0  0  0  0
    6.7343    7.9569   -2.9917 C   0  0  0  0  0  0  0  0  0  0  0  0
    7.7047    5.4913   -2.6951 H   0  0  0  0  0  0  0  0  0  0  0  0
    7.3689    6.1233   -0.7708 H   0  0  0  0  0  0  0  0  0  0  0  0
    6.0123    4.4826   -3.0662 H   0  0  0  0  0  0  0  0  0  0  0  0
    6.1632    3.7530   -2.0278 H   0  0  0  0  0  0  0  0  0  0  0  0
    2.7466    4.0486   -1.8716 H   0  0  0  0  0  0  0  0  0  0  0  0
    1.2712    2.2830   -1.6628 H   0  0  0  0  0  0  0  0  0  0  0  0
    1.0388    3.1994   -0.2429 H   0  0  0  0  0  0  0  0  0  0  0  0
    1.8018    0.2470   -0.4506 H   0  0  0  0  0  0  0  0  0  0  0  0
    0.3462    0.9605    0.1500 H   0  0  0  0  0  0  0  0  0  0  0  0
    1.7874    1.1365    1.1139 H   0  0  0  0  0  0  0  0  0  0  0  0
    4.6384    0.7003    0.2063 H   0  0  0  0  0  0  0  0  0  0  0  0
    6.2754    0.9218    0.7437 H   0  0  0  0  0  0  0  0  0  0  0  0
    5.9483    0.8906   -0.9757 H   0  0  0  0  0  0  0  0  0  0  0  0
    6.5521    4.4992    0.4866 H   0  0  0  0  0  0  0  0  0  0  0  0
    7.7564    1.9901   -0.9147 H   0  0  0  0  0  0  0  0  0  0  0  0
    8.7693    4.8371   -0.6311 H   0  0  0  0  0  0  0  0  0  0  0  0
   10.3010    3.1223   -1.9733 H   0  0  0  0  0  0  0  0  0  0  0  0
    8.9552    5.1833   -3.8104 H   0  0  0  0  0  0  0  0  0  0  0  0
   11.2797    5.1093   -1.8631 H   0  0  0  0  0  0  0  0  0  0  0  0
   10.6551    6.8417   -4.3456 H   0  0  0  0  0  0  0  0  0  0  0  0
   12.9509    6.2792   -2.3026 H   0  0  0  0  0  0  0  0  0  0  0  0
   12.7208    8.0593   -4.7922 H   0  0  0  0  0  0  0  0  0  0  0  0
   14.8787    7.0335   -2.7381 H   0  0  0  0  0  0  0  0  0  0  0  0
   14.9270    8.8686   -5.1633 H   0  0  0  0  0  0  0  0  0  0  0  0
   16.9193    8.1860   -2.8916 H   0  0  0  0  0  0  0  0  0  0  0  0
   16.9219   10.1494   -5.1760 H   0  0  0  0  0  0  0  0  0  0  0  0
   16.6259   11.2389   -2.7239 H   0  0  0  0  0  0  0  0  0  0  0  0
   14.1922   11.0498   -4.5052 H   0  0  0  0  0  0  0  0  0  0  0  0
   13.0519   10.8702   -2.0317 H   0  0  0  0  0  0  0  0  0  0  0  0
   12.4476   11.7644   -4.4466 H   0  0  0  0  0  0  0  0  0  0  0  0
   12.1017   10.5689   -4.9763 H   0  0  0  0  0  0  0  0  0  0  0  0
   11.6958   11.8730   -3.3664 H   0  0  0  0  0  0  0  0  0  0  0  0
   10.3940    8.2407   -2.0267 H   0  0  0  0  0  0  0  0  0  0  0  0
    6.2157    8.4624   -2.1560 H   0  0  0  0  0  0  0  0  0  0  0  0
    6.5302    7.3973   -3.9153 H   0  0  0  0  0  0  0  0  0  0  0  0
    5.9702    7.1630   -2.6273 H   0  0  0  0  0  0  0  0  0  0  0  0
  1  2  1  0  0  0  0
  1 28  1  0  0  0  0
  1 30  1  0  0  0  0
  1 31  1  0  0  0  0
  2  3  1  0  0  0  0
  2 32  1  0  0  0  0
  2 33  1  0  0  0  0
  3  4  2  3  0  0  0
  3  7  1  0  0  0  0
  4  5  1  0  0  0  0
  4 34  1  0  0  0  0
  5  6  1  0  0  0  0
  5 35  1  0  0  0  0
  5 36  1  0  0  0  0
  6 37  1  0  0  0  0
  6 38  1  0  0  0  0
  6 39  1  0  0  0  0
  7  8  1  0  0  0  0
  7  9  2  3  0  0  0
  8 40  1  0  0  0  0
  8 41  1  0  0  0  0
  8 42  1  0  0  0  0
  9 10  1  0  0  0  0
  9 43  1  0  0  0  0
 10 11  2  3  0  0  0
 10 44  1  0  0  0  0
 11 12  1  0  0  0  0
 11 45  1  0  0  0  0
 12 13  2  3  0  0  0
 12 46  1  0  0  0  0
 13 14  1  0  0  0  0
 13 47  1  0  0  0  0
 14 15  2  3  0  0  0
 14 48  1  0  0  0  0
 15 16  1  0  0  0  0
 15 49  1  0  0  0  0
 16 17  2  3  0  0  0
 16 50  1  0  0  0  0
 17 18  1  0  0  0  0
 17 51  1  0  0  0  0
 18 19  2  3  0  0  0
 18 52  1  0  0  0  0
 19 20  1  0  0  0  0
 19 53  1  0  0  0  0
 20 21  2  3  0  0  0
 20 54  1  0  0  0  0
 21 22  1  0  0  0  0
 21 55  1  0  0  0  0
 22 23  2  3  0  0  0
 22 56  1  0  0  0  0
 23 24  1  0  0  0  0
 23 57  1  0  0  0  0
 24 25  2  3  0  0  0
 24 58  1  0  0  0  0
 25 26  1  0  0  0  0
 25 27  1  0  0  0  0
 26 59  1  0  0  0  0
 26 60  1  0  0  0  0
 26 61  1  0  0  0  0
 27 28  2  3  0  0  0
 27 62  1  0  0  0  0
 28 29  1  0  0  0  0
 29 63  1  0  0  0  0
 29 64  1  0  0  0  0
 29 65  1  0  0  0  0
M  END
$$$$
