
 OpenBabel04232216533D

214213  0  0  0  0  0  0  0  0999 V2000
    5.5016   18.7291  -38.4585 C   0  0  0  0  0  0  0  0  0  0  0  0
    7.0124   18.7097  -38.3893 C   0  0  0  0  0  0  0  0  0  0  0  0
    7.4777   17.5469  -37.5312 C   0  0  0  0  0  0  0  0  0  0  0  0
    8.9920   17.5254  -37.4579 C   0  0  0  0  0  0  0  0  0  0  0  0
    9.4529   16.3632  -36.6003 C   0  0  0  0  0  0  0  0  0  0  0  0
   10.9668   16.3426  -36.5278 C   0  0  0  0  0  0  0  0  0  0  0  0
   11.4276   15.1819  -35.6689 C   0  0  0  0  0  0  0  0  0  0  0  0
   12.9414   15.1604  -35.5980 C   0  0  0  0  0  0  0  0  0  0  0  0
   13.4022   13.9998  -34.7391 C   0  0  0  0  0  0  0  0  0  0  0  0
   14.9160   13.9793  -34.6667 C   0  0  0  0  0  0  0  0  0  0  0  0
   15.3769   12.8176  -33.8095 C   0  0  0  0  0  0  0  0  0  0  0  0
   16.8906   12.7960  -33.7386 C   0  0  0  0  0  0  0  0  0  0  0  0
   17.3516   11.6330  -32.8830 C   0  0  0  0  0  0  0  0  0  0  0  0
   18.8653   11.6126  -32.8106 C   0  0  0  0  0  0  0  0  0  0  0  0
   19.3263   10.4496  -31.9550 C   0  0  0  0  0  0  0  0  0  0  0  0
   20.8401   10.4281  -31.8841 C   0  0  0  0  0  0  0  0  0  0  0  0
   21.3010    9.2663  -31.0269 C   0  0  0  0  0  0  0  0  0  0  0  0
   22.8147    9.2458  -30.9545 C   0  0  0  0  0  0  0  0  0  0  0  0
   23.2755    8.0852  -30.0956 C   0  0  0  0  0  0  0  0  0  0  0  0
   24.7893    8.0637  -30.0247 C   0  0  0  0  0  0  0  0  0  0  0  0
   25.2501    6.9042  -29.1643 C   0  0  0  0  0  0  0  0  0  0  0  0
   26.7639    6.8838  -29.0918 C   0  0  0  0  0  0  0  0  0  0  0  0
   27.2248    5.7231  -28.2328 C   0  0  0  0  0  0  0  0  0  0  0  0
   28.7389    5.7036  -28.1586 C   0  0  0  0  0  0  0  0  0  0  0  0
   29.2007    4.5425  -27.2993 C   0  0  0  0  0  0  0  0  0  0  0  0
   30.7165    4.5205  -27.2256 C   0  0  0  0  0  0  0  0  0  0  0  0
   31.1839    3.3577  -26.3650 C   0  0  0  0  0  0  0  0  0  0  0  0
   32.7080    3.3306  -26.2877 C   0  0  0  0  0  0  0  0  0  0  0  0
   33.1934    2.1603  -25.4263 C   0  0  0  0  0  0  0  0  0  0  0  0
   34.6569    2.1375  -25.3654 N   0  0  0  0  0  0  0  0  0  0  0  0
   35.0284    1.0831  -24.5566 N   0  0  0  0  0  0  0  0  0  0  0  0
   36.4328    1.0815  -24.4934 N   0  0  0  0  0  0  0  0  0  0  0  0
   36.8573    0.0108  -23.6700 N   0  0  0  0  0  0  0  0  0  0  0  0
   36.4085   -1.2299  -24.2349 N   0  0  0  0  0  0  0  0  0  0  0  0
   36.9384   -1.4013  -25.5696 N   0  0  0  0  0  0  0  0  0  0  0  0
   38.3590   -1.4044  -25.5344 N   0  0  0  0  0  0  0  0  0  0  0  0
   38.8334   -2.4951  -24.7261 N   0  0  0  0  0  0  0  0  0  0  0  0
   38.3549   -3.7519  -25.2297 N   0  0  0  0  0  0  0  0  0  0  0  0
   38.8411   -3.9528  -26.5678 N   0  0  0  0  0  0  0  0  0  0  0  0
   40.2675   -3.9165  -26.5607 N   0  0  0  0  0  0  0  0  0  0  0  0
   40.7301   -4.9593  -25.7020 N   0  0  0  0  0  0  0  0  0  0  0  0
   40.2456   -6.2452  -26.1761 N   0  0  0  0  0  0  0  0  0  0  0  0
   40.7253   -6.4990  -27.5153 N   0  0  0  0  0  0  0  0  0  0  0  0
   42.1636   -6.4810  -27.5413 N   0  0  0  0  0  0  0  0  0  0  0  0
   42.6353   -7.5400  -26.6417 C   0  0  0  0  0  0  0  0  0  0  0  0
   44.1432   -7.5359  -26.6338 C   0  0  0  0  0  0  0  0  0  0  0  0
   44.6512   -8.6287  -25.7117 C   0  0  0  0  0  0  0  0  0  0  0  0
   46.1675   -8.6414  -25.7116 C   0  0  0  0  0  0  0  0  0  0  0  0
   46.6806   -9.7345  -24.7927 C   0  0  0  0  0  0  0  0  0  0  0  0
   48.2001   -9.7468  -24.7902 C   0  0  0  0  0  0  0  0  0  0  0  0
   48.7100  -10.8424  -23.8703 C   0  0  0  0  0  0  0  0  0  0  0  0
   50.1618  -10.8401  -23.8974 N   0  0  0  0  0  0  0  0  0  0  0  0
   50.6176  -11.8665  -23.0161 N   0  0  0  0  0  0  0  0  0  0  0  0
   52.0517  -11.8830  -23.0194 N   0  0  0  0  0  0  0  0  0  0  0  0
   52.5771  -10.6359  -22.5592 N   0  0  0  0  0  0  0  0  0  0  0  0
   53.9988  -10.6548  -22.5648 N   0  0  0  0  0  0  0  0  0  0  0  0
   54.5131  -10.8927  -23.8672 N   0  0  0  0  0  0  0  0  0  0  0  0
   55.9012  -10.9161  -23.8382 N   0  0  0  0  0  0  0  0  0  0  0  0
   56.3728  -11.1554  -25.1407 N   0  0  0  0  0  0  0  0  0  0  0  0
   57.7715  -11.1770  -25.1110 N   0  0  0  0  0  0  0  0  0  0  0  0
   58.2899  -11.4274  -26.4254 N   0  0  0  0  0  0  0  0  0  0  0  0
   59.7090  -11.4327  -26.4205 N   0  0  0  0  0  0  0  0  0  0  0  0
   60.2222  -11.6761  -27.7382 N   0  0  0  0  0  0  0  0  0  0  0  0
   61.6443  -11.7052  -27.7138 N   0  0  0  0  0  0  0  0  0  0  0  0
   62.0682  -12.7421  -26.8266 N   0  0  0  0  0  0  0  0  0  0  0  0
   63.5341  -12.7363  -26.8346 C   0  0  0  0  0  0  0  0  0  0  0  0
   64.0325  -13.8317  -25.9057 C   0  0  0  0  0  0  0  0  0  0  0  0
   65.5524  -13.8539  -25.8859 C   0  0  0  0  0  0  0  0  0  0  0  0
   66.0485  -14.9476  -24.9579 C   0  0  0  0  0  0  0  0  0  0  0  0
   67.5650  -14.9689  -24.9414 C   0  0  0  0  0  0  0  0  0  0  0  0
   68.0582  -16.0621  -24.0138 C   0  0  0  0  0  0  0  0  0  0  0  0
   69.5739  -16.0829  -23.9978 C   0  0  0  0  0  0  0  0  0  0  0  0
   70.0665  -17.1759  -23.0703 C   0  0  0  0  0  0  0  0  0  0  0  0
   71.5822  -17.1966  -23.0543 C   0  0  0  0  0  0  0  0  0  0  0  0
   72.0752  -18.2898  -22.1267 C   0  0  0  0  0  0  0  0  0  0  0  0
   73.5917  -18.3123  -22.1118 C   0  0  0  0  0  0  0  0  0  0  0  0
   74.0874  -19.4060  -21.1838 C   0  0  0  0  0  0  0  0  0  0  0  0
   75.6077  -19.4308  -21.1668 C   0  0  0  0  0  0  0  0  0  0  0  0
   76.1068  -20.5282  -20.2376 C   0  0  0  0  0  0  0  0  0  0  0  0
   77.5672  -20.5295  -20.2375 N   0  0  0  0  0  0  0  0  0  0  0  0
   78.0227  -21.5678  -19.3636 N   0  0  0  0  0  0  0  0  0  0  0  0
    5.1640   19.5649  -39.0754 H   0  0  0  0  0  0  0  0  0  0  0  0
    5.0758   18.8384  -37.4562 H   0  0  0  0  0  0  0  0  0  0  0  0
    5.1283   17.7975  -38.8951 H   0  0  0  0  0  0  0  0  0  0  0  0
    7.3740   19.6528  -37.9644 H   0  0  0  0  0  0  0  0  0  0  0  0
    7.4264   18.6147  -39.3994 H   0  0  0  0  0  0  0  0  0  0  0  0
    7.1149   16.6031  -37.9561 H   0  0  0  0  0  0  0  0  0  0  0  0
    7.0602   17.6400  -36.5213 H   0  0  0  0  0  0  0  0  0  0  0  0
    9.3561   18.4677  -37.0315 H   0  0  0  0  0  0  0  0  0  0  0  0
    9.4109   17.4304  -38.4668 H   0  0  0  0  0  0  0  0  0  0  0  0
    9.0893   15.4204  -37.0263 H   0  0  0  0  0  0  0  0  0  0  0  0
    9.0345   16.4576  -35.5911 H   0  0  0  0  0  0  0  0  0  0  0  0
   11.3307   17.2858  -36.1030 H   0  0  0  0  0  0  0  0  0  0  0  0
   11.3853   16.2466  -37.5368 H   0  0  0  0  0  0  0  0  0  0  0  0
   11.0626   14.2388  -36.0928 H   0  0  0  0  0  0  0  0  0  0  0  0
   11.0103   15.2787  -34.6595 H   0  0  0  0  0  0  0  0  0  0  0  0
   13.3065   16.1036  -35.1741 H   0  0  0  0  0  0  0  0  0  0  0  0
   13.3588   15.0636  -36.6074 H   0  0  0  0  0  0  0  0  0  0  0  0
   13.0383   13.0566  -35.1639 H   0  0  0  0  0  0  0  0  0  0  0  0
   12.9838   14.0957  -33.7301 H   0  0  0  0  0  0  0  0  0  0  0  0
   15.2798   14.9220  -34.2407 H   0  0  0  0  0  0  0  0  0  0  0  0
   15.3345   13.8848  -35.6759 H   0  0  0  0  0  0  0  0  0  0  0  0
   15.0119   11.8750  -34.2348 H   0  0  0  0  0  0  0  0  0  0  0  0
   14.9595   12.9128  -32.8000 H   0  0  0  0  0  0  0  0  0  0  0  0
   17.2555   13.7380  -33.3121 H   0  0  0  0  0  0  0  0  0  0  0  0
   17.3081   12.7021  -34.7483 H   0  0  0  0  0  0  0  0  0  0  0  0
   16.9879   10.6909  -33.3104 H   0  0  0  0  0  0  0  0  0  0  0  0
   16.9331   11.7261  -31.8738 H   0  0  0  0  0  0  0  0  0  0  0  0
   19.2291   12.5547  -32.3832 H   0  0  0  0  0  0  0  0  0  0  0  0
   19.2839   11.5196  -33.8199 H   0  0  0  0  0  0  0  0  0  0  0  0
   18.9614    9.5076  -32.3816 H   0  0  0  0  0  0  0  0  0  0  0  0
   18.9088   10.5435  -30.9454 H   0  0  0  0  0  0  0  0  0  0  0  0
   21.2050   11.3706  -31.4589 H   0  0  0  0  0  0  0  0  0  0  0  0
   21.2574   10.3328  -32.8937 H   0  0  0  0  0  0  0  0  0  0  0  0
   20.9372    8.3236  -31.4530 H   0  0  0  0  0  0  0  0  0  0  0  0
   20.8824    9.3608  -30.0178 H   0  0  0  0  0  0  0  0  0  0  0  0
   23.1786   10.1891  -30.5297 H   0  0  0  0  0  0  0  0  0  0  0  0
   23.2332    9.1499  -31.9635 H   0  0  0  0  0  0  0  0  0  0  0  0
   22.9105    7.1421  -30.5195 H   0  0  0  0  0  0  0  0  0  0  0  0
   22.8581    8.1820  -29.0862 H   0  0  0  0  0  0  0  0  0  0  0  0
   25.1544    9.0074  -29.6022 H   0  0  0  0  0  0  0  0  0  0  0  0
   25.2066    7.9655  -31.0340 H   0  0  0  0  0  0  0  0  0  0  0  0
   24.8861    5.9604  -29.5877 H   0  0  0  0  0  0  0  0  0  0  0  0
   24.8316    7.0016  -28.1554 H   0  0  0  0  0  0  0  0  0  0  0  0
   27.1276    7.8271  -28.6671 H   0  0  0  0  0  0  0  0  0  0  0  0
   27.1824    6.7878  -30.1008 H   0  0  0  0  0  0  0  0  0  0  0  0
   26.8620    4.7799  -28.6584 H   0  0  0  0  0  0  0  0  0  0  0  0
   26.8050    5.8184  -27.2243 H   0  0  0  0  0  0  0  0  0  0  0  0
   29.1011    6.6472  -27.7333 H   0  0  0  0  0  0  0  0  0  0  0  0
   29.1581    5.6087  -29.1674 H   0  0  0  0  0  0  0  0  0  0  0  0
   28.8358    3.5999  -27.7245 H   0  0  0  0  0  0  0  0  0  0  0  0
   28.7811    4.6391  -26.2908 H   0  0  0  0  0  0  0  0  0  0  0  0
   31.0777    5.4654  -26.8022 H   0  0  0  0  0  0  0  0  0  0  0  0
   31.1324    4.4262  -28.2358 H   0  0  0  0  0  0  0  0  0  0  0  0
   30.8139    2.4178  -26.7919 H   0  0  0  0  0  0  0  0  0  0  0  0
   30.7594    3.4568  -25.3586 H   0  0  0  0  0  0  0  0  0  0  0  0
   33.0577    4.2820  -25.8683 H   0  0  0  0  0  0  0  0  0  0  0  0
   33.1130    3.2424  -27.3030 H   0  0  0  0  0  0  0  0  0  0  0  0
   32.8031    1.2329  -25.8641 H   0  0  0  0  0  0  0  0  0  0  0  0
   32.7506    2.2725  -24.4253 H   0  0  0  0  0  0  0  0  0  0  0  0
   34.9803    3.0159  -24.9536 H   0  0  0  0  0  0  0  0  0  0  0  0
   34.7141    0.2035  -24.9711 H   0  0  0  0  0  0  0  0  0  0  0  0
   36.7262    1.9964  -24.1322 H   0  0  0  0  0  0  0  0  0  0  0  0
   36.4775    0.1327  -22.7246 H   0  0  0  0  0  0  0  0  0  0  0  0
   35.3990   -1.2470  -24.3178 H   0  0  0  0  0  0  0  0  0  0  0  0
   36.6398   -0.6189  -26.1504 H   0  0  0  0  0  0  0  0  0  0  0  0
   38.6981   -0.5287  -25.1493 H   0  0  0  0  0  0  0  0  0  0  0  0
   38.4964   -2.3625  -23.7667 H   0  0  0  0  0  0  0  0  0  0  0  0
   37.3365   -3.7590  -25.2567 H   0  0  0  0  0  0  0  0  0  0  0  0
   38.5147   -3.1829  -27.1454 H   0  0  0  0  0  0  0  0  0  0  0  0
   40.5448   -2.9913  -26.1994 H   0  0  0  0  0  0  0  0  0  0  0  0
   40.3847   -4.7903  -24.7413 H   0  0  0  0  0  0  0  0  0  0  0  0
   39.2213   -6.2538  -26.1891 H   0  0  0  0  0  0  0  0  0  0  0  0
   40.3776   -5.7400  -28.1106 H   0  0  0  0  0  0  0  0  0  0  0  0
   42.4586   -5.5717  -27.1748 H   0  0  0  0  0  0  0  0  0  0  0  0
   42.2521   -8.5067  -26.9795 H   0  0  0  0  0  0  0  0  0  0  0  0
   42.2782   -7.3756  -25.6119 H   0  0  0  0  0  0  0  0  0  0  0  0
   44.5178   -6.5625  -26.2937 H   0  0  0  0  0  0  0  0  0  0  0  0
   44.5121   -7.7056  -27.6503 H   0  0  0  0  0  0  0  0  0  0  0  0
   44.2721   -9.6021  -26.0457 H   0  0  0  0  0  0  0  0  0  0  0  0
   44.2818   -8.4593  -24.6927 H   0  0  0  0  0  0  0  0  0  0  0  0
   46.5450   -7.6679  -25.3768 H   0  0  0  0  0  0  0  0  0  0  0  0
   46.5353   -8.8105  -26.7307 H   0  0  0  0  0  0  0  0  0  0  0  0
   46.3010  -10.7069  -25.1291 H   0  0  0  0  0  0  0  0  0  0  0  0
   46.3087   -9.5652  -23.7751 H   0  0  0  0  0  0  0  0  0  0  0  0
   48.5719   -8.7704  -24.4559 H   0  0  0  0  0  0  0  0  0  0  0  0
   48.5650   -9.9124  -25.8117 H   0  0  0  0  0  0  0  0  0  0  0  0
   48.3331  -11.8104  -24.2214 H   0  0  0  0  0  0  0  0  0  0  0  0
   48.3356  -10.6716  -22.8540 H   0  0  0  0  0  0  0  0  0  0  0  0
   50.5285   -9.9562  -23.5418 H   0  0  0  0  0  0  0  0  0  0  0  0
   50.2812  -12.7703  -23.3477 H   0  0  0  0  0  0  0  0  0  0  0  0
   52.3742  -12.0886  -23.9717 H   0  0  0  0  0  0  0  0  0  0  0  0
   52.2480  -10.4516  -21.6126 H   0  0  0  0  0  0  0  0  0  0  0  0
   54.3234  -11.4029  -21.9571 H   0  0  0  0  0  0  0  0  0  0  0  0
   54.2068  -10.1570  -24.4960 H   0  0  0  0  0  0  0  0  0  0  0  0
   56.2239  -11.6662  -23.2343 H   0  0  0  0  0  0  0  0  0  0  0  0
   56.0022  -10.4231  -25.7495 H   0  0  0  0  0  0  0  0  0  0  0  0
   58.0796  -11.9045  -24.4551 H   0  0  0  0  0  0  0  0  0  0  0  0
   57.9432  -10.6949  -27.0524 H   0  0  0  0  0  0  0  0  0  0  0  0
   60.0643  -12.1794  -25.8035 H   0  0  0  0  0  0  0  0  0  0  0  0
   59.9124  -10.9556  -28.3923 H   0  0  0  0  0  0  0  0  0  0  0  0
   62.0174  -10.8004  -27.3918 H   0  0  0  0  0  0  0  0  0  0  0  0
   61.7637  -13.6626  -27.1675 H   0  0  0  0  0  0  0  0  0  0  0  0
   63.9210  -11.7696  -26.4887 H   0  0  0  0  0  0  0  0  0  0  0  0
   63.9189  -12.9193  -27.8468 H   0  0  0  0  0  0  0  0  0  0  0  0
   63.6601  -14.8079  -26.2401 H   0  0  0  0  0  0  0  0  0  0  0  0
   63.6580  -13.6603  -24.8890 H   0  0  0  0  0  0  0  0  0  0  0  0
   65.9352  -12.8835  -25.5475 H   0  0  0  0  0  0  0  0  0  0  0  0
   65.9360  -14.0292  -26.8982 H   0  0  0  0  0  0  0  0  0  0  0  0
   65.6693  -15.9201  -25.2938 H   0  0  0  0  0  0  0  0  0  0  0  0
   65.6707  -14.7735  -23.9433 H   0  0  0  0  0  0  0  0  0  0  0  0
   67.9465  -13.9976  -24.6045 H   0  0  0  0  0  0  0  0  0  0  0  0
   67.9451  -15.1442  -25.9550 H   0  0  0  0  0  0  0  0  0  0  0  0
   67.6778  -17.0340  -24.3502 H   0  0  0  0  0  0  0  0  0  0  0  0
   67.6792  -15.8874  -22.9997 H   0  0  0  0  0  0  0  0  0  0  0  0
   69.9547  -15.1112  -23.6611 H   0  0  0  0  0  0  0  0  0  0  0  0
   69.9533  -16.2578  -25.0116 H   0  0  0  0  0  0  0  0  0  0  0  0
   69.6857  -18.1476  -23.4069 H   0  0  0  0  0  0  0  0  0  0  0  0
   69.6872  -17.0010  -22.0564 H   0  0  0  0  0  0  0  0  0  0  0  0
   71.9627  -16.2248  -22.7178 H   0  0  0  0  0  0  0  0  0  0  0  0
   71.9612  -17.3714  -24.0683 H   0  0  0  0  0  0  0  0  0  0  0  0
   71.6927  -19.2610  -22.4627 H   0  0  0  0  0  0  0  0  0  0  0  0
   71.6965  -18.1138  -21.1128 H   0  0  0  0  0  0  0  0  0  0  0  0
   73.9722  -17.3401  -21.7767 H   0  0  0  0  0  0  0  0  0  0  0  0
   73.9684  -18.4873  -23.1266 H   0  0  0  0  0  0  0  0  0  0  0  0
   73.7025  -20.3761  -21.5205 H   0  0  0  0  0  0  0  0  0  0  0  0
   73.7064  -19.2291  -20.1708 H   0  0  0  0  0  0  0  0  0  0  0  0
   75.9820  -18.4554  -20.8324 H   0  0  0  0  0  0  0  0  0  0  0  0
   75.9795  -19.6017  -22.1847 H   0  0  0  0  0  0  0  0  0  0  0  0
   75.7176  -21.4931  -20.5865 H   0  0  0  0  0  0  0  0  0  0  0  0
   75.7197  -20.3455  -19.2276 H   0  0  0  0  0  0  0  0  0  0  0  0
   77.9130  -19.6144  -19.9310 H   0  0  0  0  0  0  0  0  0  0  0  0
   77.6661  -22.4739  -19.6775 H   0  0  0  0  0  0  0  0  0  0  0  0
   77.6645  -21.4289  -18.4170 H   0  0  0  0  0  0  0  0  0  0  0  0
  1  2  1  0  0  0  0
  1 82  1  0  0  0  0
  1 83  1  0  0  0  0
  1 84  1  0  0  0  0
  2  3  1  0  0  0  0
  2 85  1  0  0  0  0
  2 86  1  0  0  0  0
  3  4  1  0  0  0  0
  3 87  1  0  0  0  0
  3 88  1  0  0  0  0
  4  5  1  0  0  0  0
  4 89  1  0  0  0  0
  4 90  1  0  0  0  0
  5  6  1  0  0  0  0
  5 91  1  0  0  0  0
  5 92  1  0  0  0  0
  6  7  1  0  0  0  0
  6 93  1  0  0  0  0
  6 94  1  0  0  0  0
  7  8  1  0  0  0  0
  7 95  1  0  0  0  0
  7 96  1  0  0  0  0
  8  9  1  0  0  0  0
  8 97  1  0  0  0  0
  8 98  1  0  0  0  0
  9 10  1  0  0  0  0
  9 99  1  0  0  0  0
  9100  1  0  0  0  0
 10 11  1  0  0  0  0
 10101  1  0  0  0  0
 10102  1  0  0  0  0
 11 12  1  0  0  0  0
 11103  1  0  0  0  0
 11104  1  0  0  0  0
 12 13  1  0  0  0  0
 12105  1  0  0  0  0
 12106  1  0  0  0  0
 13 14  1  0  0  0  0
 13107  1  0  0  0  0
 13108  1  0  0  0  0
 14 15  1  0  0  0  0
 14109  1  0  0  0  0
 14110  1  0  0  0  0
 15 16  1  0  0  0  0
 15111  1  0  0  0  0
 15112  1  0  0  0  0
 16 17  1  0  0  0  0
 16113  1  0  0  0  0
 16114  1  0  0  0  0
 17 18  1  0  0  0  0
 17115  1  0  0  0  0
 17116  1  0  0  0  0
 18 19  1  0  0  0  0
 18117  1  0  0  0  0
 18118  1  0  0  0  0
 19 20  1  0  0  0  0
 19119  1  0  0  0  0
 19120  1  0  0  0  0
 20 21  1  0  0  0  0
 20121  1  0  0  0  0
 20122  1  0  0  0  0
 21 22  1  0  0  0  0
 21123  1  0  0  0  0
 21124  1  0  0  0  0
 22 23  1  0  0  0  0
 22125  1  0  0  0  0
 22126  1  0  0  0  0
 23 24  1  0  0  0  0
 23127  1  0  0  0  0
 23128  1  0  0  0  0
 24 25  1  0  0  0  0
 24129  1  0  0  0  0
 24130  1  0  0  0  0
 25 26  1  0  0  0  0
 25131  1  0  0  0  0
 25132  1  0  0  0  0
 26 27  1  0  0  0  0
 26133  1  0  0  0  0
 26134  1  0  0  0  0
 27 28  1  0  0  0  0
 27135  1  0  0  0  0
 27136  1  0  0  0  0
 28 29  1  0  0  0  0
 28137  1  0  0  0  0
 28138  1  0  0  0  0
 29 30  1  0  0  0  0
 29139  1  0  0  0  0
 29140  1  0  0  0  0
 30 31  1  0  0  0  0
 30141  1  0  0  0  0
 31 32  1  0  0  0  0
 31142  1  0  0  0  0
 32 33  1  0  0  0  0
 32143  1  0  0  0  0
 33 34  1  0  0  0  0
 33144  1  0  0  0  0
 34 35  1  0  0  0  0
 34145  1  0  0  0  0
 35 36  1  0  0  0  0
 35146  1  0  0  0  0
 36 37  1  0  0  0  0
 36147  1  0  0  0  0
 37 38  1  0  0  0  0
 37148  1  0  0  0  0
 38 39  1  0  0  0  0
 38149  1  0  0  0  0
 39 40  1  0  0  0  0
 39150  1  0  0  0  0
 40 41  1  0  0  0  0
 40151  1  0  0  0  0
 41 42  1  0  0  0  0
 41152  1  0  0  0  0
 42 43  1  0  0  0  0
 42153  1  0  0  0  0
 43 44  1  0  0  0  0
 43154  1  0  0  0  0
 44 45  1  0  0  0  0
 44155  1  0  0  0  0
 45 46  1  0  0  0  0
 45156  1  0  0  0  0
 45157  1  0  0  0  0
 46 47  1  0  0  0  0
 46158  1  0  0  0  0
 46159  1  0  0  0  0
 47 48  1  0  0  0  0
 47160  1  0  0  0  0
 47161  1  0  0  0  0
 48 49  1  0  0  0  0
 48162  1  0  0  0  0
 48163  1  0  0  0  0
 49 50  1  0  0  0  0
 49164  1  0  0  0  0
 49165  1  0  0  0  0
 50 51  1  0  0  0  0
 50166  1  0  0  0  0
 50167  1  0  0  0  0
 51 52  1  0  0  0  0
 51168  1  0  0  0  0
 51169  1  0  0  0  0
 52 53  1  0  0  0  0
 52170  1  0  0  0  0
 53 54  1  0  0  0  0
 53171  1  0  0  0  0
 54 55  1  0  0  0  0
 54172  1  0  0  0  0
 55 56  1  0  0  0  0
 55173  1  0  0  0  0
 56 57  1  0  0  0  0
 56174  1  0  0  0  0
 57 58  1  0  0  0  0
 57175  1  0  0  0  0
 58 59  1  0  0  0  0
 58176  1  0  0  0  0
 59 60  1  0  0  0  0
 59177  1  0  0  0  0
 60 61  1  0  0  0  0
 60178  1  0  0  0  0
 61 62  1  0  0  0  0
 61179  1  0  0  0  0
 62 63  1  0  0  0  0
 62180  1  0  0  0  0
 63 64  1  0  0  0  0
 63181  1  0  0  0  0
 64 65  1  0  0  0  0
 64182  1  0  0  0  0
 65 66  1  0  0  0  0
 65183  1  0  0  0  0
 66 67  1  0  0  0  0
 66184  1  0  0  0  0
 66185  1  0  0  0  0
 67 68  1  0  0  0  0
 67186  1  0  0  0  0
 67187  1  0  0  0  0
 68 69  1  0  0  0  0
 68188  1  0  0  0  0
 68189  1  0  0  0  0
 69 70  1  0  0  0  0
 69190  1  0  0  0  0
 69191  1  0  0  0  0
 70 71  1  0  0  0  0
 70192  1  0  0  0  0
 70193  1  0  0  0  0
 71 72  1  0  0  0  0
 71194  1  0  0  0  0
 71195  1  0  0  0  0
 72 73  1  0  0  0  0
 72196  1  0  0  0  0
 72197  1  0  0  0  0
 73 74  1  0  0  0  0
 73198  1  0  0  0  0
 73199  1  0  0  0  0
 74 75  1  0  0  0  0
 74200  1  0  0  0  0
 74201  1  0  0  0  0
 75 76  1  0  0  0  0
 75202  1  0  0  0  0
 75203  1  0  0  0  0
 76 77  1  0  0  0  0
 76204  1  0  0  0  0
 76205  1  0  0  0  0
 77 78  1  0  0  0  0
 77206  1  0  0  0  0
 77207  1  0  0  0  0
 78 79  1  0  0  0  0
 78208  1  0  0  0  0
 78209  1  0  0  0  0
 79 80  1  0  0  0  0
 79210  1  0  0  0  0
 79211  1  0  0  0  0
 80 81  1  0  0  0  0
 80212  1  0  0  0  0
 81213  1  0  0  0  0
 81214  1  0  0  0  0
M  END
$$$$
