
 OpenBabel04232216553D

 53 54  0  0  1  0  0  0  0  0999 V2000
    6.4285    1.4104   -0.2841 C   0  0  0  0  0  0  0  0  0  0  0  0
    6.7530    2.6569    0.4293 N   0  0  0  0  0  0  0  0  0  0  0  0
    5.4506    3.0637    1.0564 C   0  0  0  0  0  0  0  0  0  0  0  0
    4.3203    2.6324    0.8499 O   0  0  0  0  0  0  0  0  0  0  0  0
    5.8439    4.1244    2.0161 C   0  0  3  0  0  0  0  0  0  0  0  0
    5.1453    5.0266    3.0154 C   0  0  0  0  0  0  0  0  0  0  0  0
    6.0586    5.8113    4.0375 C   0  0  0  0  0  0  0  0  0  0  0  0
    7.5212    5.5975    4.5163 C   0  0  0  0  0  0  0  0  0  0  0  0
    5.4829    4.9315    0.5161 C   0  0  0  0  0  0  0  0  0  0  0  0
    5.8107    2.5914    2.8213 C   0  0  0  0  0  0  0  0  0  0  0  0
    6.8511    1.8921    3.3658 C   0  0  0  0  0  0  0  0  0  0  0  0
    7.5007    0.6648    2.6946 C   0  0  0  0  0  0  0  0  0  0  0  0
    7.3815    2.5639    4.5368 C   0  0  0  0  0  0  0  0  0  0  0  0
    6.2782    2.9725    5.4791 C   0  0  0  0  0  0  0  0  0  0  0  0
    8.5148    3.2741    4.3964 C   0  0  0  0  0  0  0  0  0  0  0  0
    9.7597    2.4941    3.9270 C   0  0  0  0  0  0  0  0  0  0  0  0
    8.5149    4.7152    4.7368 C   0  0  0  0  0  0  0  0  0  0  0  0
    9.6708    5.1295    5.3750 N   0  0  0  0  0  0  0  0  0  0  0  0
    9.9566    6.4034    5.3909 C   0  0  0  0  0  0  0  0  0  0  0  0
   10.4538    7.1086    4.1589 C   0  0  0  0  0  0  0  0  0  0  0  0
   11.3454    6.2957    3.6087 C   0  0  0  0  0  0  0  0  0  0  0  0
   11.1793    5.3557    2.4701 C   0  0  0  0  0  0  0  0  0  0  0  0
   10.2830    4.6409    1.7032 C   0  0  0  0  0  0  0  0  0  0  0  0
    8.7420    4.3218    1.4251 C   0  0  0  0  0  0  0  0  0  0  0  0
    8.1776    3.2378    0.7007 C   0  0  0  0  0  0  0  0  0  0  0  0
    5.3381    1.2308   -0.3095 H   0  0  0  0  0  0  0  0  0  0  0  0
    6.7617    0.5268    0.2563 H   0  0  0  0  0  0  0  0  0  0  0  0
    6.7162    1.4289   -1.3251 H   0  0  0  0  0  0  0  0  0  0  0  0
    4.3021    4.5427    3.5315 H   0  0  0  0  0  0  0  0  0  0  0  0
    4.6276    5.8406    2.4840 H   0  0  0  0  0  0  0  0  0  0  0  0
    6.0180    6.8503    3.6835 H   0  0  0  0  0  0  0  0  0  0  0  0
    5.4481    5.8604    4.9570 H   0  0  0  0  0  0  0  0  0  0  0  0
    7.5999    6.6257    4.9748 H   0  0  0  0  0  0  0  0  0  0  0  0
    5.1920    4.3479   -0.4025 H   0  0  0  0  0  0  0  0  0  0  0  0
    6.3694    5.4640    0.1707 H   0  0  0  0  0  0  0  0  0  0  0  0
    4.6142    5.5934    0.5818 H   0  0  0  0  0  0  0  0  0  0  0  0
    4.8170    2.2559    3.1720 H   0  0  0  0  0  0  0  0  0  0  0  0
    6.7689   -0.0516    2.3035 H   0  0  0  0  0  0  0  0  0  0  0  0
    8.1634    0.0677    3.3318 H   0  0  0  0  0  0  0  0  0  0  0  0
    8.1397    0.9590    1.8499 H   0  0  0  0  0  0  0  0  0  0  0  0
    5.5052    2.2072    5.5802 H   0  0  0  0  0  0  0  0  0  0  0  0
    5.7465    3.8148    5.0739 H   0  0  0  0  0  0  0  0  0  0  0  0
    6.6586    3.2623    6.4562 H   0  0  0  0  0  0  0  0  0  0  0  0
    9.5219    1.4995    3.5473 H   0  0  0  0  0  0  0  0  0  0  0  0
   10.4793    2.2914    4.7221 H   0  0  0  0  0  0  0  0  0  0  0  0
   10.3016    2.9004    3.0912 H   0  0  0  0  0  0  0  0  0  0  0  0
    9.4163    7.0490    6.1148 H   0  0  0  0  0  0  0  0  0  0  0  0
    9.6480    7.5737    3.6150 H   0  0  0  0  0  0  0  0  0  0  0  0
   12.1901    6.0292    4.2852 H   0  0  0  0  0  0  0  0  0  0  0  0
   12.2235    5.0016    2.3534 H   0  0  0  0  0  0  0  0  0  0  0  0
   10.8589    3.8725    1.1663 H   0  0  0  0  0  0  0  0  0  0  0  0
    8.1298    5.0432    1.9607 H   0  0  0  0  0  0  0  0  0  0  0  0
    8.8974    2.5840    0.2216 H   0  0  0  0  0  0  0  0  0  0  0  0
  1  2  1  0  0  0  0
  1 26  1  0  0  0  0
  1 27  1  0  0  0  0
  1 28  1  0  0  0  0
  2  3  1  0  0  0  0
  2 25  1  0  0  0  0
  3  4  2  0  0  0  0
  3  5  1  0  0  0  0
  5  6  1  0  0  0  0
  5  9  1  0  0  0  0
  5 10  1  0  0  0  0
  6  7  1  0  0  0  0
  6 29  1  0  0  0  0
  6 30  1  0  0  0  0
  7  8  1  0  0  0  0
  7 31  1  0  0  0  0
  7 32  1  0  0  0  0
  8 17  2  3  0  0  0
  8 33  1  0  0  0  0
  9 34  1  0  0  0  0
  9 35  1  0  0  0  0
  9 36  1  0  0  0  0
 10 11  2  3  0  0  0
 10 37  1  0  0  0  0
 11 12  1  0  0  0  0
 11 13  1  0  0  0  0
 12 38  1  0  0  0  0
 12 39  1  0  0  0  0
 12 40  1  0  0  0  0
 13 14  1  0  0  0  0
 13 15  2  3  0  0  0
 14 41  1  0  0  0  0
 14 42  1  0  0  0  0
 14 43  1  0  0  0  0
 15 16  1  0  0  0  0
 15 17  1  0  0  0  0
 16 44  1  0  0  0  0
 16 45  1  0  0  0  0
 16 46  1  0  0  0  0
 17 18  1  0  0  0  0
 18 19  2  3  0  0  0
 19 20  1  0  0  0  0
 19 47  1  0  0  0  0
 20 21  2  3  0  0  0
 20 48  1  0  0  0  0
 21 22  1  0  0  0  0
 21 49  1  0  0  0  0
 22 23  2  3  0  0  0
 22 50  1  0  0  0  0
 23 24  1  0  0  0  0
 23 51  1  0  0  0  0
 24 25  2  3  0  0  0
 24 52  1  0  0  0  0
 25 53  1  0  0  0  0
M  END
$$$$
