
 OpenBabel04232216553D

 18 17  0  0  0  0  0  0  0  0999 V2000
    1.0853    0.1232   -0.0322 C   0  0  0  0  0  0  0  0  0  0  0  0
    2.5952   -0.0305   -0.0419 C   0  0  0  0  0  0  0  0  0  0  0  0
    3.0299   -1.7962   -0.0848 S   0  0  0  0  0  0  0  0  0  0  0  0
    4.8514   -1.6387   -0.0169 C   0  0  0  0  0  0  0  0  0  0  0  0
    5.4711   -3.0284    0.0825 C   0  0  0  0  0  0  0  0  0  0  0  0
    7.2992   -3.0221    0.1086 S   0  0  0  0  0  0  0  0  0  0  0  0
    7.8236   -1.8492    1.7116 S   0  0  0  0  0  0  0  0  0  0  0  0
    7.7043   -3.0381    3.3774 S   0  0  0  0  0  0  0  0  0  0  0  0
    0.8187    1.1869   -0.0175 H   0  0  0  0  0  0  0  0  0  0  0  0
    0.6388   -0.3398    0.8525 H   0  0  0  0  0  0  0  0  0  0  0  0
    0.6266   -0.3159   -0.9242 H   0  0  0  0  0  0  0  0  0  0  0  0
    3.0206    0.4261    0.8575 H   0  0  0  0  0  0  0  0  0  0  0  0
    3.0137    0.4647   -0.9215 H   0  0  0  0  0  0  0  0  0  0  0  0
    5.0986   -1.0302    0.8601 H   0  0  0  0  0  0  0  0  0  0  0  0
    5.1889   -1.1227   -0.9186 H   0  0  0  0  0  0  0  0  0  0  0  0
    5.1865   -3.6242   -0.7943 H   0  0  0  0  0  0  0  0  0  0  0  0
    5.1187   -3.5661    0.9671 H   0  0  0  0  0  0  0  0  0  0  0  0
    6.6715   -2.4535    4.0043 H   0  0  0  0  0  0  0  0  0  0  0  0
  1  2  1  0  0  0  0
  1  9  1  0  0  0  0
  1 10  1  0  0  0  0
  1 11  1  0  0  0  0
  2  3  1  0  0  0  0
  2 12  1  0  0  0  0
  2 13  1  0  0  0  0
  3  4  1  0  0  0  0
  4  5  1  0  0  0  0
  4 14  1  0  0  0  0
  4 15  1  0  0  0  0
  5  6  1  0  0  0  0
  5 16  1  0  0  0  0
  5 17  1  0  0  0  0
  6  7  1  0  0  0  0
  7  8  1  0  0  0  0
  8 18  1  0  0  0  0
M  END
$$$$
