
 OpenBabel04232216583D

132131  0  0  0  0  0  0  0  0999 V2000
   40.4133  -15.7308  -19.1152 N   0  0  0  0  0  0  0  0  0  0  0  0
   40.1581  -14.7444  -18.0891 N   0  0  0  0  0  0  0  0  0  0  0  0
   40.7292  -15.2438  -16.8327 C   0  0  0  0  0  0  0  0  0  0  0  0
   40.4309  -14.3197  -15.6412 C   0  0  0  0  0  0  0  0  0  0  0  0
   40.8864  -14.8844  -14.3407 N   0  0  0  0  0  0  0  0  0  0  0  0
   42.3135  -14.9143  -14.3324 N   0  0  0  0  0  0  0  0  0  0  0  0
   42.7843  -15.4699  -13.1147 N   0  0  0  0  0  0  0  0  0  0  0  0
   44.2214  -15.5103  -13.1409 N   0  0  0  0  0  0  0  0  0  0  0  0
   44.8061  -15.6703  -11.8244 N   0  0  0  0  0  0  0  0  0  0  0  0
   44.2952  -16.8819  -11.2235 N   0  0  0  0  0  0  0  0  0  0  0  0
   45.0866  -17.4173  -10.1293 N   0  0  0  0  0  0  0  0  0  0  0  0
   44.5477  -18.7016   -9.6301 N   0  0  0  0  0  0  0  0  0  0  0  0
   44.6707  -19.7869  -10.5817 N   0  0  0  0  0  0  0  0  0  0  0  0
   43.8780  -21.1549  -10.0772 S   0  0  0  0  0  0  0  0  0  0  0  0
   42.2600  -21.0544  -10.3436 N   0  0  0  0  0  0  0  0  0  0  0  0
   41.7715  -20.1764  -11.6358 S   0  0  0  0  0  0  0  0  0  0  0  0
   41.6141  -21.1884  -12.9205 N   0  0  0  0  0  0  0  0  0  0  0  0
   42.4561  -20.6717  -14.2493 S   0  0  0  0  0  0  0  0  0  0  0  0
   41.8990  -19.1333  -14.6000 N   0  0  0  0  0  0  0  0  0  0  0  0
   41.2035  -19.0260  -16.1030 S   0  0  0  0  0  0  0  0  0  0  0  0
   39.5911  -19.4073  -15.9979 N   0  0  0  0  0  0  0  0  0  0  0  0
   38.7241  -18.2471  -15.1916 S   0  0  0  0  0  0  0  0  0  0  0  0
   39.2051  -18.5208  -13.6486 N   0  0  0  0  0  0  0  0  0  0  0  0
   38.9041  -17.3033  -12.5769 S   0  0  0  0  0  0  0  0  0  0  0  0
   37.2779  -17.1509  -12.3011 N   0  0  0  0  0  0  0  0  0  0  0  0
   36.4706  -18.5581  -11.9604 S   0  0  0  0  0  0  0  0  0  0  0  0
   37.1004  -19.1606  -10.5520 N   0  0  0  0  0  0  0  0  0  0  0  0
   36.3761  -20.5608  -10.0397 S   0  0  0  0  0  0  0  0  0  0  0  0
   36.5891  -21.7279  -11.1814 N   0  0  0  0  0  0  0  0  0  0  0  0
   38.1675  -22.0475  -11.5230 S   0  0  0  0  0  0  0  0  0  0  0  0
   38.1764  -23.3663  -12.5217 N   0  0  0  0  0  0  0  0  0  0  0  0
   37.2568  -23.2005  -13.8927 S   0  0  0  0  0  0  0  0  0  0  0  0
   38.0045  -22.1590  -14.9454 N   0  0  0  0  0  0  0  0  0  0  0  0
   39.5867  -22.5472  -15.1750 S   0  0  0  0  0  0  0  0  0  0  0  0
   39.6481  -23.6764  -16.3442 N   0  0  0  0  0  0  0  0  0  0  0  0
   40.0504  -23.1264  -17.8443 S   0  0  0  0  0  0  0  0  0  0  0  0
   40.7526  -21.6375  -17.8609 N   0  0  0  0  0  0  0  0  0  0  0  0
   42.3343  -21.5648  -18.3469 S   0  0  0  0  0  0  0  0  0  0  0  0
   42.7233  -22.7644  -19.4207 N   0  0  0  0  0  0  0  0  0  0  0  0
   42.3903  -22.3969  -20.9977 S   0  0  0  0  0  0  0  0  0  0  0  0
   40.8477  -22.9728  -21.1585 N   0  0  0  0  0  0  0  0  0  0  0  0
   40.2442  -22.8615  -22.6816 S   0  0  0  0  0  0  0  0  0  0  0  0
   40.8063  -24.1433  -23.5625 N   0  0  0  0  0  0  0  0  0  0  0  0
   40.4340  -25.6479  -22.9815 S   0  0  0  0  0  0  0  0  0  0  0  0
   38.8003  -25.8142  -22.8552 N   0  0  0  0  0  0  0  0  0  0  0  0
   37.9650  -25.8464  -24.2826 S   0  0  0  0  0  0  0  0  0  0  0  0
   38.5364  -27.0234  -25.2932 N   0  0  0  0  0  0  0  0  0  0  0  0
   38.3010  -28.5815  -24.8194 S   0  0  0  0  0  0  0  0  0  0  0  0
   36.6813  -28.8426  -24.6877 N   0  0  0  0  0  0  0  0  0  0  0  0
   35.8203  -28.6949  -26.0983 S   0  0  0  0  0  0  0  0  0  0  0  0
   36.3443  -29.7973  -27.1903 N   0  0  0  0  0  0  0  0  0  0  0  0
   35.8179  -31.3305  -26.9237 S   0  0  0  0  0  0  0  0  0  0  0  0
   36.6788  -32.2273  -28.0128 N   0  0  0  0  0  0  0  0  0  0  0  0
   35.9125  -32.3624  -29.4771 S   0  0  0  0  0  0  0  0  0  0  0  0
   36.1180  -30.9268  -30.2813 N   0  0  0  0  0  0  0  0  0  0  0  0
   37.7052  -30.5070  -30.4563 S   0  0  0  0  0  0  0  0  0  0  0  0
   38.1827  -31.3366  -31.7851 N   0  0  0  0  0  0  0  0  0  0  0  0
   39.7879  -31.1083  -32.0594 S   0  0  0  0  0  0  0  0  0  0  0  0
   40.1510  -32.0814  -33.3469 N   0  0  0  0  0  0  0  0  0  0  0  0
   40.4444  -33.6474  -32.8814 S   0  0  0  0  0  0  0  0  0  0  0  0
   38.9808  -34.3332  -32.4791 N   0  0  0  0  0  0  0  0  0  0  0  0
   37.9237  -34.4478  -33.7538 S   0  0  0  0  0  0  0  0  0  0  0  0
   38.6736  -35.3011  -34.9416 N   0  0  0  0  0  0  0  0  0  0  0  0
   38.4913  -36.9261  -34.7441 S   0  0  0  0  0  0  0  0  0  0  0  0
   39.3995  -37.6071  -35.9518 N   0  0  0  0  0  0  0  0  0  0  0  0
   38.5243  -37.8291  -37.3414 S   0  0  0  0  0  0  0  0  0  0  0  0
   38.3404  -36.3606  -38.0839 N   0  0  0  0  0  0  0  0  0  0  0  0
   39.7536  -35.5888  -38.4445 S   0  0  0  0  0  0  0  0  0  0  0  0
   40.4513  -36.4781  -39.6187 N   0  0  0  0  0  0  0  0  0  0  0  0
   41.9550  -35.9257  -40.0180 S   0  0  0  0  0  0  0  0  0  0  0  0
   42.4250  -36.7755  -41.3598 N   0  0  0  0  0  0  0  0  0  0  0  0
   42.9110  -38.3230  -40.9993 S   0  0  0  0  0  0  0  0  0  0  0  0
   41.5616  -39.2594  -40.7527 N   0  0  0  0  0  0  0  0  0  0  0  0
   40.5202  -39.2799  -42.0331 S   0  0  0  0  0  0  0  0  0  0  0  0
   41.2275  -40.2002  -43.2112 N   0  0  0  0  0  0  0  0  0  0  0  0
   40.1279  -40.4353  -44.4242 S   0  0  0  0  0  0  0  0  0  0  0  0
   40.8992  -41.2245  -45.6557 N   0  0  0  0  0  0  0  0  0  0  0  0
   41.3147  -42.7612  -45.2119 S   0  0  0  0  0  0  0  0  0  0  0  0
   42.1023  -43.4251  -46.4898 N   0  0  0  0  0  0  0  0  0  0  0  0
   43.5346  -42.6869  -46.8184 S   0  0  0  0  0  0  0  0  0  0  0  0
   43.9620  -43.3994  -48.2312 N   0  0  0  0  0  0  0  0  0  0  0  0
   40.1137  -15.4136  -20.0417 H   0  0  0  0  0  0  0  0  0  0  0  0
   39.8844  -16.5862  -18.9381 H   0  0  0  0  0  0  0  0  0  0  0  0
   39.1547  -14.6032  -17.9611 H   0  0  0  0  0  0  0  0  0  0  0  0
   41.8147  -15.3540  -16.9428 H   0  0  0  0  0  0  0  0  0  0  0  0
   40.3077  -16.2238  -16.6100 H   0  0  0  0  0  0  0  0  0  0  0  0
   39.3472  -14.1586  -15.5619 H   0  0  0  0  0  0  0  0  0  0  0  0
   40.8674  -13.3227  -15.8044 H   0  0  0  0  0  0  0  0  0  0  0  0
   40.5205  -15.8397  -14.2243 H   0  0  0  0  0  0  0  0  0  0  0  0
   42.6862  -13.9732  -14.4377 H   0  0  0  0  0  0  0  0  0  0  0  0
   42.4081  -16.4243  -13.0398 H   0  0  0  0  0  0  0  0  0  0  0  0
   44.5674  -14.6763  -13.6221 H   0  0  0  0  0  0  0  0  0  0  0  0
   44.6030  -14.8482  -11.2456 H   0  0  0  0  0  0  0  0  0  0  0  0
   44.2414  -17.5700  -11.9869 H   0  0  0  0  0  0  0  0  0  0  0  0
   45.0773  -16.7514   -9.3431 H   0  0  0  0  0  0  0  0  0  0  0  0
   43.5488  -18.6044   -9.4008 H   0  0  0  0  0  0  0  0  0  0  0  0
   45.6415  -20.0269  -10.7744 H   0  0  0  0  0  0  0  0  0  0  0  0
   41.6739  -20.8706   -9.5269 H   0  0  0  0  0  0  0  0  0  0  0  0
   41.7787  -22.1743  -12.6840 H   0  0  0  0  0  0  0  0  0  0  0  0
   42.7246  -18.5278  -14.6459 H   0  0  0  0  0  0  0  0  0  0  0  0
   39.4230  -20.3398  -15.6345 H   0  0  0  0  0  0  0  0  0  0  0  0
   40.2225  -18.6514  -13.7230 H   0  0  0  0  0  0  0  0  0  0  0  0
   36.8478  -16.6461  -13.0768 H   0  0  0  0  0  0  0  0  0  0  0  0
   36.9881  -18.4776   -9.8081 H   0  0  0  0  0  0  0  0  0  0  0  0
   36.0778  -21.4736  -12.0226 H   0  0  0  0  0  0  0  0  0  0  0  0
   37.8746  -24.1842  -11.9857 H   0  0  0  0  0  0  0  0  0  0  0  0
   37.9911  -21.2022  -14.5772 H   0  0  0  0  0  0  0  0  0  0  0  0
   40.2555  -24.4274  -16.0343 H   0  0  0  0  0  0  0  0  0  0  0  0
   40.4361  -20.9246  -17.1841 H   0  0  0  0  0  0  0  0  0  0  0  0
   42.2583  -23.6385  -19.1949 H   0  0  0  0  0  0  0  0  0  0  0  0
   40.2888  -22.4025  -20.5181 H   0  0  0  0  0  0  0  0  0  0  0  0
   41.8153  -24.0768  -23.6410 H   0  0  0  0  0  0  0  0  0  0  0  0
   38.4320  -25.0861  -22.2403 H   0  0  0  0  0  0  0  0  0  0  0  0
   39.5183  -26.8682  -25.5073 H   0  0  0  0  0  0  0  0  0  0  0  0
   36.3206  -28.1845  -23.9975 H   0  0  0  0  0  0  0  0  0  0  0  0
   37.3419  -29.7730  -27.3905 H   0  0  0  0  0  0  0  0  0  0  0  0
   36.8522  -33.1557  -27.6307 H   0  0  0  0  0  0  0  0  0  0  0  0
   35.6254  -30.2003  -29.7655 H   0  0  0  0  0  0  0  0  0  0  0  0
   37.6013  -31.0398  -32.5655 H   0  0  0  0  0  0  0  0  0  0  0  0
   40.9885  -31.7038  -33.7934 H   0  0  0  0  0  0  0  0  0  0  0  0
   38.5474  -33.7358  -31.7737 H   0  0  0  0  0  0  0  0  0  0  0  0
   39.6553  -35.0354  -34.9869 H   0  0  0  0  0  0  0  0  0  0  0  0
   39.7174  -38.5167  -35.6119 H   0  0  0  0  0  0  0  0  0  0  0  0
   37.7084  -35.7637  -37.5546 H   0  0  0  0  0  0  0  0  0  0  0  0
   39.8433  -36.5959  -40.4370 H   0  0  0  0  0  0  0  0  0  0  0  0
   43.1917  -36.2808  -41.8131 H   0  0  0  0  0  0  0  0  0  0  0  0
   41.0662  -38.9455  -39.9128 H   0  0  0  0  0  0  0  0  0  0  0  0
   41.5167  -41.0976  -42.8164 H   0  0  0  0  0  0  0  0  0  0  0  0
   41.7191  -40.7116  -45.9809 H   0  0  0  0  0  0  0  0  0  0  0  0
   41.5525  -43.4437  -47.3458 H   0  0  0  0  0  0  0  0  0  0  0  0
   44.8381  -43.0192  -48.5837 H   0  0  0  0  0  0  0  0  0  0  0  0
   43.2654  -43.2580  -48.9597 H   0  0  0  0  0  0  0  0  0  0  0  0
  1  2  1  0  0  0  0
  1 82  1  0  0  0  0
  1 83  1  0  0  0  0
  2  3  1  0  0  0  0
  2 84  1  0  0  0  0
  3  4  1  0  0  0  0
  3 85  1  0  0  0  0
  3 86  1  0  0  0  0
  4  5  1  0  0  0  0
  4 87  1  0  0  0  0
  4 88  1  0  0  0  0
  5  6  1  0  0  0  0
  5 89  1  0  0  0  0
  6  7  1  0  0  0  0
  6 90  1  0  0  0  0
  7  8  1  0  0  0  0
  7 91  1  0  0  0  0
  8  9  1  0  0  0  0
  8 92  1  0  0  0  0
  9 10  1  0  0  0  0
  9 93  1  0  0  0  0
 10 11  1  0  0  0  0
 10 94  1  0  0  0  0
 11 12  1  0  0  0  0
 11 95  1  0  0  0  0
 12 13  1  0  0  0  0
 12 96  1  0  0  0  0
 13 14  1  0  0  0  0
 13 97  1  0  0  0  0
 14 15  1  0  0  0  0
 15 16  1  0  0  0  0
 15 98  1  0  0  0  0
 16 17  1  0  0  0  0
 17 18  1  0  0  0  0
 17 99  1  0  0  0  0
 18 19  1  0  0  0  0
 19 20  1  0  0  0  0
 19100  1  0  0  0  0
 20 21  1  0  0  0  0
 21 22  1  0  0  0  0
 21101  1  0  0  0  0
 22 23  1  0  0  0  0
 23 24  1  0  0  0  0
 23102  1  0  0  0  0
 24 25  1  0  0  0  0
 25 26  1  0  0  0  0
 25103  1  0  0  0  0
 26 27  1  0  0  0  0
 27 28  1  0  0  0  0
 27104  1  0  0  0  0
 28 29  1  0  0  0  0
 29 30  1  0  0  0  0
 29105  1  0  0  0  0
 30 31  1  0  0  0  0
 31 32  1  0  0  0  0
 31106  1  0  0  0  0
 32 33  1  0  0  0  0
 33 34  1  0  0  0  0
 33107  1  0  0  0  0
 34 35  1  0  0  0  0
 35 36  1  0  0  0  0
 35108  1  0  0  0  0
 36 37  1  0  0  0  0
 37 38  1  0  0  0  0
 37109  1  0  0  0  0
 38 39  1  0  0  0  0
 39 40  1  0  0  0  0
 39110  1  0  0  0  0
 40 41  1  0  0  0  0
 41 42  1  0  0  0  0
 41111  1  0  0  0  0
 42 43  1  0  0  0  0
 43 44  1  0  0  0  0
 43112  1  0  0  0  0
 44 45  1  0  0  0  0
 45 46  1  0  0  0  0
 45113  1  0  0  0  0
 46 47  1  0  0  0  0
 47 48  1  0  0  0  0
 47114  1  0  0  0  0
 48 49  1  0  0  0  0
 49 50  1  0  0  0  0
 49115  1  0  0  0  0
 50 51  1  0  0  0  0
 51 52  1  0  0  0  0
 51116  1  0  0  0  0
 52 53  1  0  0  0  0
 53 54  1  0  0  0  0
 53117  1  0  0  0  0
 54 55  1  0  0  0  0
 55 56  1  0  0  0  0
 55118  1  0  0  0  0
 56 57  1  0  0  0  0
 57 58  1  0  0  0  0
 57119  1  0  0  0  0
 58 59  1  0  0  0  0
 59 60  1  0  0  0  0
 59120  1  0  0  0  0
 60 61  1  0  0  0  0
 61 62  1  0  0  0  0
 61121  1  0  0  0  0
 62 63  1  0  0  0  0
 63 64  1  0  0  0  0
 63122  1  0  0  0  0
 64 65  1  0  0  0  0
 65 66  1  0  0  0  0
 65123  1  0  0  0  0
 66 67  1  0  0  0  0
 67 68  1  0  0  0  0
 67124  1  0  0  0  0
 68 69  1  0  0  0  0
 69 70  1  0  0  0  0
 69125  1  0  0  0  0
 70 71  1  0  0  0  0
 71 72  1  0  0  0  0
 71126  1  0  0  0  0
 72 73  1  0  0  0  0
 73 74  1  0  0  0  0
 73127  1  0  0  0  0
 74 75  1  0  0  0  0
 75 76  1  0  0  0  0
 75128  1  0  0  0  0
 76 77  1  0  0  0  0
 77 78  1  0  0  0  0
 77129  1  0  0  0  0
 78 79  1  0  0  0  0
 79 80  1  0  0  0  0
 79130  1  0  0  0  0
 80 81  1  0  0  0  0
 81131  1  0  0  0  0
 81132  1  0  0  0  0
M  END
$$$$
