
 OpenBabel04232216483D

 67 69  0  0  0  0  0  0  0  0999 V2000
    5.0026    3.7471   -3.2473 C   0  0  0  0  0  0  0  0  0  0  0  0
    5.4374    2.7956   -2.1716 C   0  0  0  0  0  0  0  0  0  0  0  0
    5.5435    1.4962   -2.5307 C   0  0  0  0  0  0  0  0  0  0  0  0
    5.9837    0.4935   -1.6240 C   0  0  0  0  0  0  0  0  0  0  0  0
    6.2666    0.7646   -0.3480 C   0  0  0  0  0  0  0  0  0  0  0  0
    6.5615   -0.3174    0.4898 N   0  0  0  0  0  0  0  0  0  0  0  0
    7.4741   -1.4209    0.1555 C   0  0  0  0  0  0  0  0  0  0  0  0
    8.9389   -0.9327    0.1155 C   0  0  0  0  0  0  0  0  0  0  0  0
    9.3643   -0.4778    1.5380 C   0  0  0  0  0  0  0  0  0  0  0  0
   10.3905    0.6562    1.5017 C   0  0  0  0  0  0  0  0  0  0  0  0
   11.8113    0.1808    1.7989 C   0  0  0  0  0  0  0  0  0  0  0  0
   12.8760    1.0020    1.0672 C   0  0  0  0  0  0  0  0  0  0  0  0
   12.8505    0.8317   -0.4587 C   0  0  0  0  0  0  0  0  0  0  0  0
   13.2476   -0.5753   -0.9194 C   0  0  0  0  0  0  0  0  0  0  0  0
   12.6579   -0.9439   -2.2867 C   0  0  0  0  0  0  0  0  0  0  0  0
   11.7253   -2.1706   -2.2632 C   0  0  0  0  0  0  0  0  0  0  0  0
   10.2552   -1.8512   -1.9239 C   0  0  0  0  0  0  0  0  0  0  0  0
    9.9039   -2.0194   -0.4335 C   0  0  0  0  0  0  0  0  0  0  0  0
    6.1540    2.1290    0.1240 N   0  0  0  0  0  0  0  0  0  0  0  0
    6.0200    2.3312    1.4984 C   0  0  0  0  0  0  0  0  0  0  0  0
    4.8789    2.6581    2.1235 C   0  0  0  0  0  0  0  0  0  0  0  0
    4.8847    3.2861    3.4389 C   0  0  0  0  0  0  0  0  0  0  0  0
    4.2038    4.4475    3.5420 C   0  0  0  0  0  0  0  0  0  0  0  0
    5.0905    5.6292    3.5469 C   0  0  0  0  0  0  0  0  0  0  0  0
    5.1714    6.2308    2.3353 C   0  0  0  0  0  0  0  0  0  0  0  0
    6.4011    6.0605    1.5866 C   0  0  0  0  0  0  0  0  0  0  0  0
    6.6585    5.3152    0.4975 C   0  0  0  0  0  0  0  0  0  0  0  0
    5.8520    4.5654   -0.4878 C   0  0  0  0  0  0  0  0  0  0  0  0
    5.8085    3.2156   -0.7704 C   0  0  0  0  0  0  0  0  0  0  0  0
    4.8215    3.2215   -4.1970 H   0  0  0  0  0  0  0  0  0  0  0  0
    5.7822    4.4844   -3.4570 H   0  0  0  0  0  0  0  0  0  0  0  0
    4.0663    4.2453   -2.9868 H   0  0  0  0  0  0  0  0  0  0  0  0
    5.2938    1.1634   -3.5405 H   0  0  0  0  0  0  0  0  0  0  0  0
    5.9759   -0.5252   -2.0011 H   0  0  0  0  0  0  0  0  0  0  0  0
    6.6062   -0.0296    1.4617 H   0  0  0  0  0  0  0  0  0  0  0  0
    7.1943   -1.8818   -0.7989 H   0  0  0  0  0  0  0  0  0  0  0  0
    7.3624   -2.2020    0.9162 H   0  0  0  0  0  0  0  0  0  0  0  0
    8.9739   -0.0645   -0.5529 H   0  0  0  0  0  0  0  0  0  0  0  0
    9.7149   -1.3326    2.1283 H   0  0  0  0  0  0  0  0  0  0  0  0
    8.5031   -0.0863    2.0859 H   0  0  0  0  0  0  0  0  0  0  0  0
   10.1193    1.3941    2.2678 H   0  0  0  0  0  0  0  0  0  0  0  0
   10.3182    1.1989    0.5550 H   0  0  0  0  0  0  0  0  0  0  0  0
   11.9345   -0.8799    1.5721 H   0  0  0  0  0  0  0  0  0  0  0  0
   11.9793    0.2647    2.8796 H   0  0  0  0  0  0  0  0  0  0  0  0
   13.8647    0.7194    1.4474 H   0  0  0  0  0  0  0  0  0  0  0  0
   12.7350    2.0623    1.3106 H   0  0  0  0  0  0  0  0  0  0  0  0
   13.5535    1.5525   -0.8964 H   0  0  0  0  0  0  0  0  0  0  0  0
   11.8655    1.1012   -0.8507 H   0  0  0  0  0  0  0  0  0  0  0  0
   12.9934   -1.3374   -0.1807 H   0  0  0  0  0  0  0  0  0  0  0  0
   14.3433   -0.5996   -0.9919 H   0  0  0  0  0  0  0  0  0  0  0  0
   13.4998   -1.1859   -2.9486 H   0  0  0  0  0  0  0  0  0  0  0  0
   12.1507   -0.0919   -2.7546 H   0  0  0  0  0  0  0  0  0  0  0  0
   12.1255   -2.9538   -1.6078 H   0  0  0  0  0  0  0  0  0  0  0  0
   11.7401   -2.5924   -3.2768 H   0  0  0  0  0  0  0  0  0  0  0  0
    9.6247   -2.5497   -2.4906 H   0  0  0  0  0  0  0  0  0  0  0  0
   10.0035   -0.8519   -2.2932 H   0  0  0  0  0  0  0  0  0  0  0  0
   10.8245   -2.0372    0.1497 H   0  0  0  0  0  0  0  0  0  0  0  0
    9.4578   -3.0148   -0.2955 H   0  0  0  0  0  0  0  0  0  0  0  0
    6.9842    2.3094    1.9959 H   0  0  0  0  0  0  0  0  0  0  0  0
    3.9661    2.7362    1.5309 H   0  0  0  0  0  0  0  0  0  0  0  0
    5.8452    3.1891    3.9551 H   0  0  0  0  0  0  0  0  0  0  0  0
    3.3130    4.5893    2.9242 H   0  0  0  0  0  0  0  0  0  0  0  0
    5.9908    5.4826    4.1466 H   0  0  0  0  0  0  0  0  0  0  0  0
    4.2806    6.3536    1.7338 H   0  0  0  0  0  0  0  0  0  0  0  0
    7.2577    6.5651    2.0494 H   0  0  0  0  0  0  0  0  0  0  0  0
    7.6915    5.3556    0.1536 H   0  0  0  0  0  0  0  0  0  0  0  0
    5.4894    5.2581   -1.2469 H   0  0  0  0  0  0  0  0  0  0  0  0
  1  2  1  0  0  0  0
  1 30  1  0  0  0  0
  1 31  1  0  0  0  0
  1 32  1  0  0  0  0
  2  3  2  0  0  0  0
  2 29  1  0  0  0  0
  3  4  1  0  0  0  0
  3 33  1  0  0  0  0
  4  5  2  0  0  0  0
  4 34  1  0  0  0  0
  5  6  1  0  0  0  0
  5 19  1  0  0  0  0
  6  7  1  0  0  0  0
  6 35  1  0  0  0  0
  7  8  1  0  0  0  0
  7 36  1  0  0  0  0
  7 37  1  0  0  0  0
  8  9  1  0  0  0  0
  8 18  1  0  0  0  0
  8 38  1  0  0  0  0
  9 10  1  0  0  0  0
  9 39  1  0  0  0  0
  9 40  1  0  0  0  0
 10 11  1  0  0  0  0
 10 41  1  0  0  0  0
 10 42  1  0  0  0  0
 11 12  1  0  0  0  0
 11 43  1  0  0  0  0
 11 44  1  0  0  0  0
 12 13  1  0  0  0  0
 12 45  1  0  0  0  0
 12 46  1  0  0  0  0
 13 14  1  0  0  0  0
 13 47  1  0  0  0  0
 13 48  1  0  0  0  0
 14 15  1  0  0  0  0
 14 49  1  0  0  0  0
 14 50  1  0  0  0  0
 15 16  1  0  0  0  0
 15 51  1  0  0  0  0
 15 52  1  0  0  0  0
 16 17  1  0  0  0  0
 16 53  1  0  0  0  0
 16 54  1  0  0  0  0
 17 18  1  0  0  0  0
 17 55  1  0  0  0  0
 17 56  1  0  0  0  0
 18 57  1  0  0  0  0
 18 58  1  0  0  0  0
 19 20  1  0  0  0  0
 19 29  1  0  0  0  0
 20 21  2  3  0  0  0
 20 59  1  0  0  0  0
 21 22  1  0  0  0  0
 21 60  1  0  0  0  0
 22 23  2  3  0  0  0
 22 61  1  0  0  0  0
 23 24  1  0  0  0  0
 23 62  1  0  0  0  0
 24 25  2  3  0  0  0
 24 63  1  0  0  0  0
 25 26  1  0  0  0  0
 25 64  1  0  0  0  0
 26 27  2  3  0  0  0
 26 65  1  0  0  0  0
 27 28  1  0  0  0  0
 27 66  1  0  0  0  0
 28 29  2  3  0  0  0
 28 67  1  0  0  0  0
M  END
$$$$
