
 OpenBabel04232216513D

 48 49  0  0  0  0  0  0  0  0999 V2000
    0.8355    0.8927    0.4173 C   0  0  0  0  0  0  0  0  0  0  0  0
    2.3501    1.0535    0.4082 C   0  0  0  0  0  0  0  0  0  0  0  0
    2.9181    0.9044   -1.0077 C   0  0  0  0  0  0  0  0  0  0  0  0
    4.4837    1.0315   -1.0185 C   0  0  0  0  0  0  0  0  0  0  0  0
    5.2947    2.1435   -1.9481 C   0  0  0  0  0  0  0  0  0  0  0  0
    4.4378    3.1995   -2.7900 C   0  0  0  0  0  0  0  0  0  0  0  0
    4.4763    2.9699   -4.3112 C   0  0  0  0  0  0  0  0  0  0  0  0
    3.8159    4.1259   -5.0556 C   0  0  0  0  0  0  0  0  0  0  0  0
    6.7211    2.1011   -1.8619 C   0  0  0  0  0  0  0  0  0  0  0  0
    7.4811    3.1053   -2.7131 C   0  0  0  0  0  0  0  0  0  0  0  0
    7.0362    3.9150   -3.5247 O   0  0  0  0  0  0  0  0  0  0  0  0
    8.9573    3.1807   -2.3813 C   0  0  0  0  0  0  0  0  0  0  0  0
    9.7306    3.7468   -3.3453 C   0  0  0  0  0  0  0  0  0  0  0  0
   11.1966    4.0659   -3.4091 C   0  0  0  0  0  0  0  0  0  0  0  0
   12.1086    3.7663   -2.2211 C   0  0  0  0  0  0  0  0  0  0  0  0
   12.4302    2.2901   -1.9812 C   0  0  0  0  0  0  0  0  0  0  0  0
   11.2915    1.2754   -2.0734 C   0  0  0  0  0  0  0  0  0  0  0  0
   10.1853    1.4208   -1.0301 C   0  0  0  0  0  0  0  0  0  0  0  0
    9.4307    2.7485   -1.0259 C   0  0  0  0  0  0  0  0  0  0  0  0
    5.2809    0.1983   -0.2489 C   0  0  0  0  0  0  0  0  0  0  0  0
    0.4441    1.0080    1.4338 H   0  0  0  0  0  0  0  0  0  0  0  0
    0.5460   -0.0987    0.0536 H   0  0  0  0  0  0  0  0  0  0  0  0
    0.3579    1.6458   -0.2177 H   0  0  0  0  0  0  0  0  0  0  0  0
    2.7852    0.3036    1.0823 H   0  0  0  0  0  0  0  0  0  0  0  0
    2.6107    2.0355    0.8183 H   0  0  0  0  0  0  0  0  0  0  0  0
    2.4358    1.5949   -1.6995 H   0  0  0  0  0  0  0  0  0  0  0  0
    2.6833   -0.1222   -1.3203 H   0  0  0  0  0  0  0  0  0  0  0  0
    4.8540    4.1932   -2.5890 H   0  0  0  0  0  0  0  0  0  0  0  0
    3.3956    3.1938   -2.4696 H   0  0  0  0  0  0  0  0  0  0  0  0
    3.9666    2.0310   -4.5622 H   0  0  0  0  0  0  0  0  0  0  0  0
    5.4886    2.8505   -4.6952 H   0  0  0  0  0  0  0  0  0  0  0  0
    2.7325    4.1230   -4.8955 H   0  0  0  0  0  0  0  0  0  0  0  0
    4.0001    4.0444   -6.1324 H   0  0  0  0  0  0  0  0  0  0  0  0
    4.2103    5.0933   -4.7245 H   0  0  0  0  0  0  0  0  0  0  0  0
    9.2316    4.0493   -4.2745 H   0  0  0  0  0  0  0  0  0  0  0  0
   11.2684    5.1449   -3.6096 H   0  0  0  0  0  0  0  0  0  0  0  0
   11.6069    3.5692   -4.2971 H   0  0  0  0  0  0  0  0  0  0  0  0
   11.7335    4.2450   -1.3138 H   0  0  0  0  0  0  0  0  0  0  0  0
   13.0667    4.2725   -2.4084 H   0  0  0  0  0  0  0  0  0  0  0  0
   12.9142    2.1980   -1.0013 H   0  0  0  0  0  0  0  0  0  0  0  0
   13.1879    1.9938   -2.7176 H   0  0  0  0  0  0  0  0  0  0  0  0
   11.7294    0.2764   -1.9497 H   0  0  0  0  0  0  0  0  0  0  0  0
   10.8691    1.2695   -3.0862 H   0  0  0  0  0  0  0  0  0  0  0  0
   10.6117    1.2586   -0.0310 H   0  0  0  0  0  0  0  0  0  0  0  0
    9.4646    0.6078   -1.1874 H   0  0  0  0  0  0  0  0  0  0  0  0
   10.0365    3.5343   -0.5695 H   0  0  0  0  0  0  0  0  0  0  0  0
    8.5946    2.6659   -0.3224 H   0  0  0  0  0  0  0  0  0  0  0  0
    6.2738   -0.1051    0.0760 H   0  0  0  0  0  0  0  0  0  0  0  0
  1  2  1  0  0  0  0
  1 21  1  0  0  0  0
  1 22  1  0  0  0  0
  1 23  1  0  0  0  0
  2  3  1  0  0  0  0
  2 24  1  0  0  0  0
  2 25  1  0  0  0  0
  3  4  1  0  0  0  0
  3 26  1  0  0  0  0
  3 27  1  0  0  0  0
  4  5  1  0  0  0  0
  4 20  2  0  0  0  0
  5  6  1  0  0  0  0
  5  9  2  0  0  0  0
  6  7  1  0  0  0  0
  6 28  1  0  0  0  0
  6 29  1  0  0  0  0
  7  8  1  0  0  0  0
  7 30  1  0  0  0  0
  7 31  1  0  0  0  0
  8 32  1  0  0  0  0
  8 33  1  0  0  0  0
  8 34  1  0  0  0  0
  9 10  1  0  0  0  0
  9 20  1  0  0  0  0
 10 11  2  0  0  0  0
 10 12  1  0  0  0  0
 12 13  2  0  0  0  0
 12 19  1  0  0  0  0
 13 14  1  0  0  0  0
 13 35  1  0  0  0  0
 14 15  1  0  0  0  0
 14 36  1  0  0  0  0
 14 37  1  0  0  0  0
 15 16  1  0  0  0  0
 15 38  1  0  0  0  0
 15 39  1  0  0  0  0
 16 17  1  0  0  0  0
 16 40  1  0  0  0  0
 16 41  1  0  0  0  0
 17 18  1  0  0  0  0
 17 42  1  0  0  0  0
 17 43  1  0  0  0  0
 18 19  1  0  0  0  0
 18 44  1  0  0  0  0
 18 45  1  0  0  0  0
 19 46  1  0  0  0  0
 19 47  1  0  0  0  0
 20 48  1  0  0  0  0
M  END
$$$$
