
 OpenBabel04232216503D

 46 48  0  0  0  0  0  0  0  0999 V2000
    2.2502    0.1915    0.2874 C   0  0  0  0  0  0  0  0  0  0  0  0
    3.7090   -0.0959    0.4013 C   0  0  0  0  0  0  0  0  0  0  0  0
    4.4897    0.9777    0.5618 N   0  0  0  0  0  0  0  0  0  0  0  0
    5.7084    0.5968    0.2811 C   0  0  0  0  0  0  0  0  0  0  0  0
    6.6580    1.5868   -0.0829 C   0  0  0  0  0  0  0  0  0  0  0  0
    6.5108    3.0445    0.3447 C   0  0  0  0  0  0  0  0  0  0  0  0
    7.0983    3.3559    1.6430 N   0  0  0  0  0  0  0  0  0  0  0  0
    7.4374    1.2894   -1.1307 C   0  0  0  0  0  0  0  0  0  0  0  0
    8.7785    1.8245   -1.1263 C   0  0  0  0  0  0  0  0  0  0  0  0
    9.6556    0.8548   -1.4076 C   0  0  0  0  0  0  0  0  0  0  0  0
   10.3265    0.2736   -0.2610 C   0  0  0  0  0  0  0  0  0  0  0  0
   11.6688    0.9309    0.0091 C   0  0  0  0  0  0  0  0  0  0  0  0
    9.8511   -0.8501    0.3378 C   0  0  0  0  0  0  0  0  0  0  0  0
   11.0344   -1.8345    0.6002 C   0  0  0  0  0  0  0  0  0  0  0  0
    8.5066   -1.5472    0.3549 C   0  0  0  0  0  0  0  0  0  0  0  0
    7.1292   -1.6648    0.3449 C   0  0  0  0  0  0  0  0  0  0  0  0
    6.7716   -3.1527    0.3619 C   0  0  0  0  0  0  0  0  0  0  0  0
    5.8941   -0.8160    0.3117 N   0  0  0  0  0  0  0  0  0  0  0  0
    4.4668   -1.2622    0.3251 C   0  0  0  0  0  0  0  0  0  0  0  0
    3.7489   -2.6070    0.2421 C   0  0  0  0  0  0  0  0  0  0  0  0
    2.3284   -2.8091    0.3172 C   0  0  0  0  0  0  0  0  0  0  0  0
    2.4774   -4.1287    0.1603 C   0  0  0  0  0  0  0  0  0  0  0  0
    3.9002   -3.9436    0.1197 C   0  0  0  0  0  0  0  0  0  0  0  0
    2.0785    1.2713    0.2029 H   0  0  0  0  0  0  0  0  0  0  0  0
    1.7035   -0.1531    1.1666 H   0  0  0  0  0  0  0  0  0  0  0  0
    1.8341   -0.2521   -0.6233 H   0  0  0  0  0  0  0  0  0  0  0  0
    5.4450    3.3133    0.3626 H   0  0  0  0  0  0  0  0  0  0  0  0
    6.9450    3.7142   -0.4083 H   0  0  0  0  0  0  0  0  0  0  0  0
    6.6427    2.7600    2.3341 H   0  0  0  0  0  0  0  0  0  0  0  0
    6.8162    4.3067    1.8853 H   0  0  0  0  0  0  0  0  0  0  0  0
    7.3009    0.3415   -1.6552 H   0  0  0  0  0  0  0  0  0  0  0  0
    9.0071    2.5024   -0.2993 H   0  0  0  0  0  0  0  0  0  0  0  0
    9.4177    0.0977   -2.1465 H   0  0  0  0  0  0  0  0  0  0  0  0
   11.5265    1.9994    0.2386 H   0  0  0  0  0  0  0  0  0  0  0  0
   12.3274    0.8591   -0.8634 H   0  0  0  0  0  0  0  0  0  0  0  0
   12.1931    0.5057    0.8707 H   0  0  0  0  0  0  0  0  0  0  0  0
   10.7707   -2.8891    0.4492 H   0  0  0  0  0  0  0  0  0  0  0  0
   11.4783   -1.7183    1.5894 H   0  0  0  0  0  0  0  0  0  0  0  0
   11.8227   -1.6870   -0.1581 H   0  0  0  0  0  0  0  0  0  0  0  0
    8.8910   -2.5511    0.5597 H   0  0  0  0  0  0  0  0  0  0  0  0
    7.6116   -3.8619    0.3568 H   0  0  0  0  0  0  0  0  0  0  0  0
    6.2530   -3.3791   -0.5716 H   0  0  0  0  0  0  0  0  0  0  0  0
    6.2063   -3.3973    1.2631 H   0  0  0  0  0  0  0  0  0  0  0  0
    1.4341   -2.2071    0.4328 H   0  0  0  0  0  0  0  0  0  0  0  0
    1.8052   -4.9795    0.1003 H   0  0  0  0  0  0  0  0  0  0  0  0
    4.6755   -4.6772    0.0392 H   0  0  0  0  0  0  0  0  0  0  0  0
  1  2  1  0  0  0  0
  1 24  1  0  0  0  0
  1 25  1  0  0  0  0
  1 26  1  0  0  0  0
  2  3  1  0  0  0  0
  2 19  2  0  0  0  0
  3  4  2  0  0  0  0
  4  5  1  0  0  0  0
  4 18  1  0  0  0  0
  5  6  1  0  0  0  0
  5  8  2  0  0  0  0
  6  7  1  0  0  0  0
  6 27  1  0  0  0  0
  6 28  1  0  0  0  0
  7 29  1  0  0  0  0
  7 30  1  0  0  0  0
  8  9  1  0  0  0  0
  8 31  1  0  0  0  0
  9 10  2  0  0  0  0
  9 32  1  0  0  0  0
 10 11  1  0  0  0  0
 10 33  1  0  0  0  0
 11 12  1  0  0  0  0
 11 13  2  0  0  0  0
 12 34  1  0  0  0  0
 12 35  1  0  0  0  0
 12 36  1  0  0  0  0
 13 14  1  0  0  0  0
 13 15  1  0  0  0  0
 14 37  1  0  0  0  0
 14 38  1  0  0  0  0
 14 39  1  0  0  0  0
 15 16  2  0  0  0  0
 15 40  1  0  0  0  0
 16 17  1  0  0  0  0
 16 18  1  0  0  0  0
 17 41  1  0  0  0  0
 17 42  1  0  0  0  0
 17 43  1  0  0  0  0
 18 19  1  0  0  0  0
 19 20  1  0  0  0  0
 20 21  1  0  0  0  0
 20 23  2  0  0  0  0
 21 22  2  0  0  0  0
 21 44  1  0  0  0  0
 22 23  1  0  0  0  0
 22 45  1  0  0  0  0
 23 46  1  0  0  0  0
M  END
$$$$
