
 OpenBabel04232216453D

 47 48  0  0  0  0  0  0  0  0999 V2000
    8.6361   -0.1525    4.1727 C   0  0  0  0  0  0  0  0  0  0  0  0
    9.1005    1.1759    3.5522 C   0  0  0  0  0  0  0  0  0  0  0  0
    8.0915    1.6279    2.7675 C   0  0  0  0  0  0  0  0  0  0  0  0
    6.8433    1.1673    1.9590 C   0  0  0  0  0  0  0  0  0  0  0  0
    6.2909    0.0960    2.0956 O   0  0  0  0  0  0  0  0  0  0  0  0
    6.3589    2.2577    1.1778 N   0  0  0  0  0  0  0  0  0  0  0  0
    5.0309    2.4939    1.1696 F   0  0  0  0  0  0  0  0  0  0  0  0
    7.2138    3.3232    0.9409 C   0  0  0  0  0  0  0  0  0  0  0  0
    8.3781    2.7991    0.0591 C   0  0  0  0  0  0  0  0  0  0  0  0
    7.3686    4.2304    1.9675 C   0  0  0  0  0  0  0  0  0  0  0  0
    6.3236    4.3059    3.1468 C   0  0  0  0  0  0  0  0  0  0  0  0
    6.0386    5.6409    3.8126 C   0  0  0  0  0  0  0  0  0  0  0  0
    5.0278    6.4135    3.0127 C   0  0  0  0  0  0  0  0  0  0  0  0
    8.7049    4.4164    2.2785 N   0  0  0  0  0  0  0  0  0  0  0  0
    8.9553    4.2745    3.5332 C   0  0  0  0  0  0  0  0  0  0  0  0
   10.1018    3.5498    4.1069 C   0  0  0  0  0  0  0  0  0  0  0  0
   10.9362    4.5390    4.6975 C   0  0  0  0  0  0  0  0  0  0  0  0
   11.7092    5.3110    3.9300 C   0  0  0  0  0  0  0  0  0  0  0  0
   12.6780    6.1844    4.5522 C   0  0  0  0  0  0  0  0  0  0  0  0
   13.9057    5.6763    4.3588 C   0  0  0  0  0  0  0  0  0  0  0  0
   14.2602    4.4711    5.1012 C   0  0  0  0  0  0  0  0  0  0  0  0
   13.6893    3.2535    5.2393 C   0  0  0  0  0  0  0  0  0  0  0  0
   12.6016    2.0785    4.9810 C   0  0  0  0  0  0  0  0  0  0  0  0
   11.4290    1.6491    4.5909 N   0  0  0  0  0  0  0  0  0  0  0  0
   10.2638    2.1910    4.1004 C   0  0  0  0  0  0  0  0  0  0  0  0
    8.9085   -1.0155    3.5538 H   0  0  0  0  0  0  0  0  0  0  0  0
    7.5238   -0.1954    4.1822 H   0  0  0  0  0  0  0  0  0  0  0  0
    8.8792   -0.3044    5.2217 H   0  0  0  0  0  0  0  0  0  0  0  0
    7.4816    2.1411    3.5408 H   0  0  0  0  0  0  0  0  0  0  0  0
    8.0561    1.8904   -0.4787 H   0  0  0  0  0  0  0  0  0  0  0  0
    9.2446    2.4685    0.6472 H   0  0  0  0  0  0  0  0  0  0  0  0
    8.7107    3.5055   -0.7003 H   0  0  0  0  0  0  0  0  0  0  0  0
    6.6756    3.6946    3.9884 H   0  0  0  0  0  0  0  0  0  0  0  0
    5.3866    3.8156    2.8928 H   0  0  0  0  0  0  0  0  0  0  0  0
    6.9389    6.2415    3.9815 H   0  0  0  0  0  0  0  0  0  0  0  0
    5.6228    5.4320    4.8101 H   0  0  0  0  0  0  0  0  0  0  0  0
    5.4663    6.7264    2.0629 H   0  0  0  0  0  0  0  0  0  0  0  0
    4.7049    7.2904    3.5738 H   0  0  0  0  0  0  0  0  0  0  0  0
    4.1526    5.7865    2.8122 H   0  0  0  0  0  0  0  0  0  0  0  0
    8.3322    4.6967    4.3296 H   0  0  0  0  0  0  0  0  0  0  0  0
   10.8404    4.6834    5.7732 H   0  0  0  0  0  0  0  0  0  0  0  0
   11.8373    5.0821    2.8679 H   0  0  0  0  0  0  0  0  0  0  0  0
   12.3865    6.3917    5.5881 H   0  0  0  0  0  0  0  0  0  0  0  0
   14.3252    5.6887    3.3474 H   0  0  0  0  0  0  0  0  0  0  0  0
   15.1965    4.6772    5.6370 H   0  0  0  0  0  0  0  0  0  0  0  0
   14.3755    2.7022    5.9237 H   0  0  0  0  0  0  0  0  0  0  0  0
   13.1501    1.1684    5.3010 H   0  0  0  0  0  0  0  0  0  0  0  0
  1  2  1  0  0  0  0
  1 26  1  0  0  0  0
  1 27  1  0  0  0  0
  1 28  1  0  0  0  0
  2  3  2  0  0  0  0
  2 25  1  0  0  0  0
  3  4  1  0  0  0  0
  3 29  1  0  0  0  0
  4  5  2  0  0  0  0
  4  6  1  0  0  0  0
  6  7  1  0  0  0  0
  6  8  1  0  0  0  0
  8  9  1  0  0  0  0
  8 10  2  0  0  0  0
  9 30  1  0  0  0  0
  9 31  1  0  0  0  0
  9 32  1  0  0  0  0
 10 11  1  0  0  0  0
 10 14  1  0  0  0  0
 11 12  1  0  0  0  0
 11 33  1  0  0  0  0
 11 34  1  0  0  0  0
 12 13  1  0  0  0  0
 12 35  1  0  0  0  0
 12 36  1  0  0  0  0
 13 37  1  0  0  0  0
 13 38  1  0  0  0  0
 13 39  1  0  0  0  0
 14 15  2  0  0  0  0
 15 16  1  0  0  0  0
 15 40  1  0  0  0  0
 16 17  1  0  0  0  0
 16 25  2  0  0  0  0
 17 18  2  0  0  0  0
 17 41  1  0  0  0  0
 18 19  1  0  0  0  0
 18 42  1  0  0  0  0
 19 20  2  0  0  0  0
 19 43  1  0  0  0  0
 20 21  1  0  0  0  0
 20 44  1  0  0  0  0
 21 22  2  0  0  0  0
 21 45  1  0  0  0  0
 22 23  1  0  0  0  0
 22 46  1  0  0  0  0
 23 24  2  0  0  0  0
 23 47  1  0  0  0  0
 24 25  1  0  0  0  0
M  END
$$$$
