
 OpenBabel04232216493D

 60 60  0  0  1  0  0  0  0  0999 V2000
    2.4696   -1.2554    0.2976 C   0  0  0  0  0  0  0  0  0  0  0  0
    3.8035   -1.1578   -0.4695 C   0  0  3  0  0  0  0  0  0  0  0  0
    3.4990   -0.7393   -1.8705 C   0  0  0  0  0  0  0  0  0  0  0  0
    4.2982    0.1005   -2.5474 C   0  0  0  0  0  0  0  0  0  0  0  0
    4.6498   -0.3746   -3.8825 C   0  0  0  0  0  0  0  0  0  0  0  0
    5.8625   -0.9819   -3.8958 C   0  0  0  0  0  0  0  0  0  0  0  0
    5.8400   -2.4308   -3.6058 C   0  0  0  0  0  0  0  0  0  0  0  0
    5.6140   -3.3022   -4.6700 N   0  0  0  0  0  0  0  0  0  0  0  0
    5.2049   -2.8587   -6.0014 C   0  0  0  0  0  0  0  0  0  0  0  0
    5.2488   -3.9573   -7.0588 C   0  0  0  0  0  0  0  0  0  0  0  0
    4.3584   -5.1707   -6.7888 C   0  0  0  0  0  0  0  0  0  0  0  0
    2.8924   -4.8107   -6.5767 C   0  0  0  0  0  0  0  0  0  0  0  0
    2.0902   -6.0550   -6.3081 C   0  0  0  0  0  0  0  0  0  0  0  0
    1.4355   -6.2243   -5.2845 O   0  0  0  0  0  0  0  0  0  0  0  0
    6.3156   -2.8234   -2.3995 C   0  0  0  0  0  0  0  0  0  0  0  0
    7.8352   -2.8019   -2.1645 C   0  0  0  0  0  0  0  0  0  0  0  0
    8.5112   -4.1304   -1.7678 C   0  0  0  0  0  0  0  0  0  0  0  0
    8.4462   -5.2599   -2.8037 C   0  0  0  0  0  0  0  0  0  0  0  0
    9.2296   -4.9508   -4.0847 C   0  0  0  0  0  0  0  0  0  0  0  0
    9.3011   -6.1252   -5.0713 C   0  0  0  0  0  0  0  0  0  0  0  0
    7.9317   -6.5683   -5.5758 C   0  0  0  0  0  0  0  0  0  0  0  0
    8.0322   -7.5912   -6.6996 C   0  0  0  0  0  0  0  0  0  0  0  0
    6.7257   -7.9510   -7.1337 O   0  0  0  0  0  0  0  0  0  0  0  0
    5.5110   -3.1158   -1.1969 C   0  0  0  0  0  0  0  0  0  0  0  0
    4.5798   -2.4846   -0.4419 C   0  0  0  0  0  0  0  0  0  0  0  0
    1.6833   -0.6317   -0.1455 H   0  0  0  0  0  0  0  0  0  0  0  0
    2.5982   -0.9113    1.3308 H   0  0  0  0  0  0  0  0  0  0  0  0
    2.0855   -2.2815    0.3400 H   0  0  0  0  0  0  0  0  0  0  0  0
    4.4119   -0.3954    0.0346 H   0  0  0  0  0  0  0  0  0  0  0  0
    2.8144   -1.4043   -2.4009 H   0  0  0  0  0  0  0  0  0  0  0  0
    5.0661    0.6763   -2.0175 H   0  0  0  0  0  0  0  0  0  0  0  0
    3.8177   -0.9252   -4.3388 H   0  0  0  0  0  0  0  0  0  0  0  0
    6.6793   -0.4745   -3.3803 H   0  0  0  0  0  0  0  0  0  0  0  0
    5.2045   -4.1743   -4.3448 H   0  0  0  0  0  0  0  0  0  0  0  0
    5.8772   -2.0614   -6.3418 H   0  0  0  0  0  0  0  0  0  0  0  0
    4.1969   -2.4341   -5.9591 H   0  0  0  0  0  0  0  0  0  0  0  0
    6.2825   -4.2910   -7.1974 H   0  0  0  0  0  0  0  0  0  0  0  0
    4.9485   -3.5132   -8.0175 H   0  0  0  0  0  0  0  0  0  0  0  0
    4.7352   -5.7264   -5.9227 H   0  0  0  0  0  0  0  0  0  0  0  0
    4.4428   -5.8547   -7.6438 H   0  0  0  0  0  0  0  0  0  0  0  0
    2.4770   -4.3212   -7.4639 H   0  0  0  0  0  0  0  0  0  0  0  0
    2.7657   -4.1383   -5.7227 H   0  0  0  0  0  0  0  0  0  0  0  0
    2.0978   -6.8153   -7.1077 H   0  0  0  0  0  0  0  0  0  0  0  0
    8.0501   -2.0675   -1.3762 H   0  0  0  0  0  0  0  0  0  0  0  0
    8.3480   -2.4183   -3.0571 H   0  0  0  0  0  0  0  0  0  0  0  0
    8.0840   -4.4948   -0.8266 H   0  0  0  0  0  0  0  0  0  0  0  0
    9.5689   -3.9236   -1.5492 H   0  0  0  0  0  0  0  0  0  0  0  0
    7.3988   -5.4828   -3.0335 H   0  0  0  0  0  0  0  0  0  0  0  0
    8.8678   -6.1653   -2.3476 H   0  0  0  0  0  0  0  0  0  0  0  0
   10.2552   -4.6681   -3.8198 H   0  0  0  0  0  0  0  0  0  0  0  0
    8.7854   -4.0886   -4.5935 H   0  0  0  0  0  0  0  0  0  0  0  0
    9.8141   -6.9746   -4.6040 H   0  0  0  0  0  0  0  0  0  0  0  0
    9.9189   -5.8138   -5.9228 H   0  0  0  0  0  0  0  0  0  0  0  0
    7.3705   -5.7010   -5.9337 H   0  0  0  0  0  0  0  0  0  0  0  0
    7.3374   -6.9948   -4.7597 H   0  0  0  0  0  0  0  0  0  0  0  0
    8.5535   -8.4969   -6.3726 H   0  0  0  0  0  0  0  0  0  0  0  0
    8.5682   -7.1778   -7.5589 H   0  0  0  0  0  0  0  0  0  0  0  0
    6.2854   -8.3876   -6.3833 H   0  0  0  0  0  0  0  0  0  0  0  0
    5.8222   -4.0777   -0.7814 H   0  0  0  0  0  0  0  0  0  0  0  0
    4.3187   -3.0475    0.4609 H   0  0  0  0  0  0  0  0  0  0  0  0
  1  2  1  0  0  0  0
  1 26  1  0  0  0  0
  1 27  1  0  0  0  0
  1 28  1  0  0  0  0
  2  3  1  0  0  0  0
  2 25  1  0  0  0  0
  2 29  1  0  0  0  0
  3  4  2  3  0  0  0
  3 30  1  0  0  0  0
  4  5  1  0  0  0  0
  4 31  1  0  0  0  0
  5  6  2  3  0  0  0
  5 32  1  0  0  0  0
  6  7  1  0  0  0  0
  6 33  1  0  0  0  0
  7  8  1  0  0  0  0
  7 15  2  3  0  0  0
  8  9  1  0  0  0  0
  8 34  1  0  0  0  0
  9 10  1  0  0  0  0
  9 35  1  0  0  0  0
  9 36  1  0  0  0  0
 10 11  1  0  0  0  0
 10 37  1  0  0  0  0
 10 38  1  0  0  0  0
 11 12  1  0  0  0  0
 11 39  1  0  0  0  0
 11 40  1  0  0  0  0
 12 13  1  0  0  0  0
 12 41  1  0  0  0  0
 12 42  1  0  0  0  0
 13 14  2  0  0  0  0
 13 43  1  0  0  0  0
 15 16  1  0  0  0  0
 15 24  1  0  0  0  0
 16 17  1  0  0  0  0
 16 44  1  0  0  0  0
 16 45  1  0  0  0  0
 17 18  1  0  0  0  0
 17 46  1  0  0  0  0
 17 47  1  0  0  0  0
 18 19  1  0  0  0  0
 18 48  1  0  0  0  0
 18 49  1  0  0  0  0
 19 20  1  0  0  0  0
 19 50  1  0  0  0  0
 19 51  1  0  0  0  0
 20 21  1  0  0  0  0
 20 52  1  0  0  0  0
 20 53  1  0  0  0  0
 21 22  1  0  0  0  0
 21 54  1  0  0  0  0
 21 55  1  0  0  0  0
 22 23  1  0  0  0  0
 22 56  1  0  0  0  0
 22 57  1  0  0  0  0
 23 58  1  0  0  0  0
 24 25  2  3  0  0  0
 24 59  1  0  0  0  0
 25 60  1  0  0  0  0
M  END
$$$$
