
 OpenBabel04232216423D

 48 49  0  0  0  0  0  0  0  0999 V2000
    6.8913   -2.5336   -0.6408 C   0  0  0  0  0  0  0  0  0  0  0  0
    5.8377   -2.0332    0.0653 C   0  0  0  0  0  0  0  0  0  0  0  0
    4.6980   -1.4475   -0.6253 C   0  0  0  0  0  0  0  0  0  0  0  0
    4.9578   -0.4821   -1.5428 C   0  0  0  0  0  0  0  0  0  0  0  0
    5.7038    0.7814   -1.1032 C   0  0  0  0  0  0  0  0  0  0  0  0
    4.9170   -0.7605   -2.9412 N   0  0  0  0  0  0  0  0  0  0  0  0
    4.1105   -1.8802   -3.4783 C   0  0  0  0  0  0  0  0  0  0  0  0
    2.6040   -1.7736   -3.2427 C   0  0  0  0  0  0  0  0  0  0  0  0
    1.9345   -2.9437   -3.9337 C   0  0  0  0  0  0  0  0  0  0  0  0
    1.8401   -4.1919   -3.3003 C   0  0  0  0  0  0  0  0  0  0  0  0
    1.2994   -5.2869   -3.9766 C   0  0  0  0  0  0  0  0  0  0  0  0
    0.8564   -5.1465   -5.2905 C   0  0  0  0  0  0  0  0  0  0  0  0
    0.9606   -3.9140   -5.9326 C   0  0  0  0  0  0  0  0  0  0  0  0
    1.5008   -2.8181   -5.2596 C   0  0  0  0  0  0  0  0  0  0  0  0
    6.1498   -0.5211   -3.5976 N   0  0  0  0  0  0  0  0  0  0  0  0
    6.7535   -1.4886   -4.2250 C   0  0  0  0  0  0  0  0  0  0  0  0
    8.1530   -1.3364   -4.6832 C   0  0  0  0  0  0  0  0  0  0  0  0
    8.8464   -2.3710   -5.2074 C   0  0  0  0  0  0  0  0  0  0  0  0
   10.3166   -2.3344   -5.1517 C   0  0  0  0  0  0  0  0  0  0  0  0
   10.8980   -3.2164   -4.2960 C   0  0  0  0  0  0  0  0  0  0  0  0
   10.8607   -2.7391   -2.9048 C   0  0  0  0  0  0  0  0  0  0  0  0
    9.7775   -3.0010   -2.1361 C   0  0  0  0  0  0  0  0  0  0  0  0
    9.3696   -2.0329   -1.1183 C   0  0  0  0  0  0  0  0  0  0  0  0
    8.1940   -1.8719   -0.4903 C   0  0  0  0  0  0  0  0  0  0  0  0
    6.7302   -2.6904   -1.7115 H   0  0  0  0  0  0  0  0  0  0  0  0
    5.6573   -2.4500    1.0675 H   0  0  0  0  0  0  0  0  0  0  0  0
    3.9606   -2.2197   -0.7920 H   0  0  0  0  0  0  0  0  0  0  0  0
    5.0421    1.3966   -0.4773 H   0  0  0  0  0  0  0  0  0  0  0  0
    6.0034    1.4121   -1.9455 H   0  0  0  0  0  0  0  0  0  0  0  0
    6.5997    0.5716   -0.5142 H   0  0  0  0  0  0  0  0  0  0  0  0
    4.4887   -2.8280   -3.0732 H   0  0  0  0  0  0  0  0  0  0  0  0
    4.2539   -1.9160   -4.5699 H   0  0  0  0  0  0  0  0  0  0  0  0
    2.2196   -0.8253   -3.6350 H   0  0  0  0  0  0  0  0  0  0  0  0
    2.3388   -1.7882   -2.1795 H   0  0  0  0  0  0  0  0  0  0  0  0
    2.1995   -4.3245   -2.2821 H   0  0  0  0  0  0  0  0  0  0  0  0
    1.2280   -6.2518   -3.4812 H   0  0  0  0  0  0  0  0  0  0  0  0
    0.4334   -5.9985   -5.8163 H   0  0  0  0  0  0  0  0  0  0  0  0
    0.6263   -3.8068   -6.9609 H   0  0  0  0  0  0  0  0  0  0  0  0
    1.5962   -1.8677   -5.7808 H   0  0  0  0  0  0  0  0  0  0  0  0
    6.3318   -2.5010   -4.3403 H   0  0  0  0  0  0  0  0  0  0  0  0
    8.6424   -0.4271   -4.3402 H   0  0  0  0  0  0  0  0  0  0  0  0
    8.3871   -3.3192   -5.4418 H   0  0  0  0  0  0  0  0  0  0  0  0
   10.6695   -1.2984   -5.0775 H   0  0  0  0  0  0  0  0  0  0  0  0
   10.6388   -4.2685   -4.3756 H   0  0  0  0  0  0  0  0  0  0  0  0
   11.5215   -1.9044   -2.6838 H   0  0  0  0  0  0  0  0  0  0  0  0
    9.0872   -3.8011   -2.4000 H   0  0  0  0  0  0  0  0  0  0  0  0
   10.0970   -1.2519   -0.9569 H   0  0  0  0  0  0  0  0  0  0  0  0
    8.1439   -0.9651    0.1165 H   0  0  0  0  0  0  0  0  0  0  0  0
  1  2  2  3  0  0  0
  1 24  1  0  0  0  0
  1 25  1  0  0  0  0
  2  3  1  0  0  0  0
  2 26  1  0  0  0  0
  3  4  2  3  0  0  0
  3 27  1  0  0  0  0
  4  5  1  0  0  0  0
  4  6  1  0  0  0  0
  5 28  1  0  0  0  0
  5 29  1  0  0  0  0
  5 30  1  0  0  0  0
  6  7  1  0  0  0  0
  6 15  1  0  0  0  0
  7  8  1  0  0  0  0
  7 31  1  0  0  0  0
  7 32  1  0  0  0  0
  8  9  1  0  0  0  0
  8 33  1  0  0  0  0
  8 34  1  0  0  0  0
  9 10  1  0  0  0  0
  9 14  2  0  0  0  0
 10 11  2  0  0  0  0
 10 35  1  0  0  0  0
 11 12  1  0  0  0  0
 11 36  1  0  0  0  0
 12 13  2  0  0  0  0
 12 37  1  0  0  0  0
 13 14  1  0  0  0  0
 13 38  1  0  0  0  0
 14 39  1  0  0  0  0
 15 16  2  3  0  0  0
 16 17  1  0  0  0  0
 16 40  1  0  0  0  0
 17 18  2  3  0  0  0
 17 41  1  0  0  0  0
 18 19  1  0  0  0  0
 18 42  1  0  0  0  0
 19 20  2  3  0  0  0
 19 43  1  0  0  0  0
 20 21  1  0  0  0  0
 20 44  1  0  0  0  0
 21 22  2  3  0  0  0
 21 45  1  0  0  0  0
 22 23  1  0  0  0  0
 22 46  1  0  0  0  0
 23 24  2  3  0  0  0
 23 47  1  0  0  0  0
 24 48  1  0  0  0  0
M  END
$$$$
