
 OpenBabel04232216483D

 58 59  0  0  0  0  0  0  0  0999 V2000
    4.3316    1.0772    0.1229 C   0  0  0  0  0  0  0  0  0  0  0  0
    5.3164    2.0545   -0.5593 C   0  0  0  0  0  0  0  0  0  0  0  0
    4.4842    2.8791   -1.4523 C   0  0  0  0  0  0  0  0  0  0  0  0
    3.6488    2.3741   -2.4274 C   0  0  0  0  0  0  0  0  0  0  0  0
    4.0962    2.6351   -3.8414 C   0  0  0  0  0  0  0  0  0  0  0  0
    3.3803    4.0236   -4.3306 C   0  0  0  0  0  0  0  0  0  0  0  0
    3.4216    5.3927   -5.2982 C   0  0  0  0  0  0  0  0  0  0  0  0
    4.4891    6.4261   -5.9422 C   0  0  0  0  0  0  0  0  0  0  0  0
    5.9132    6.0791   -5.6979 C   0  0  0  0  0  0  0  0  0  0  0  0
    7.3989    6.4183   -6.1053 C   0  0  0  0  0  0  0  0  0  0  0  0
    8.1523    5.2887   -5.3229 C   0  0  0  0  0  0  0  0  0  0  0  0
    9.3506    4.3797   -5.0288 C   0  0  0  0  0  0  0  0  0  0  0  0
    5.2867    1.9441   -4.0547 C   0  0  0  0  0  0  0  0  0  0  0  0
    6.5733    2.6644   -4.0056 C   0  0  0  0  0  0  0  0  0  0  0  0
    6.1993    4.0535   -3.7114 C   0  0  0  0  0  0  0  0  0  0  0  0
    7.8803    2.2922   -3.9188 C   0  0  0  0  0  0  0  0  0  0  0  0
    8.3113    0.9256   -3.3754 C   0  0  0  0  0  0  0  0  0  0  0  0
    8.9573    3.3496   -3.8130 C   0  0  0  0  0  0  0  0  0  0  0  0
    9.2230    3.7478   -2.5402 C   0  0  0  0  0  0  0  0  0  0  0  0
    8.0377    3.8131   -1.5024 C   0  0  0  0  0  0  0  0  0  0  0  0
    7.4803    4.8911   -1.3218 O   0  0  0  0  0  0  0  0  0  0  0  0
    7.8888    2.7053   -0.6661 N   0  0  0  0  0  0  0  0  0  0  0  0
    9.0245    2.7190    0.2729 C   0  0  0  0  0  0  0  0  0  0  0  0
    6.6768    1.9913   -0.2759 C   0  0  0  0  0  0  0  0  0  0  0  0
    7.0048    0.7135    0.5074 C   0  0  0  0  0  0  0  0  0  0  0  0
    3.2734    1.2917   -0.0841 H   0  0  0  0  0  0  0  0  0  0  0  0
    4.4202    1.1356    1.2077 H   0  0  0  0  0  0  0  0  0  0  0  0
    4.5045    0.0506   -0.2182 H   0  0  0  0  0  0  0  0  0  0  0  0
    4.0064    3.6945   -0.8936 H   0  0  0  0  0  0  0  0  0  0  0  0
    3.4381    1.2847   -2.3918 H   0  0  0  0  0  0  0  0  0  0  0  0
    3.0701    4.4699   -3.3911 H   0  0  0  0  0  0  0  0  0  0  0  0
    2.4596    3.5742   -4.7451 H   0  0  0  0  0  0  0  0  0  0  0  0
    2.7217    5.1815   -6.1193 H   0  0  0  0  0  0  0  0  0  0  0  0
    2.8278    6.0825   -4.6680 H   0  0  0  0  0  0  0  0  0  0  0  0
    4.2734    7.4393   -5.5721 H   0  0  0  0  0  0  0  0  0  0  0  0
    4.3067    6.4743   -7.0227 H   0  0  0  0  0  0  0  0  0  0  0  0
    5.8617    5.0800   -6.1355 H   0  0  0  0  0  0  0  0  0  0  0  0
    5.9449    6.1943   -4.6078 H   0  0  0  0  0  0  0  0  0  0  0  0
    7.6849    7.4094   -5.7400 H   0  0  0  0  0  0  0  0  0  0  0  0
    7.5416    6.3489   -7.1863 H   0  0  0  0  0  0  0  0  0  0  0  0
    7.5214    4.4541   -5.6140 H   0  0  0  0  0  0  0  0  0  0  0  0
    8.0679    5.7468   -4.3344 H   0  0  0  0  0  0  0  0  0  0  0  0
   10.2050    4.9919   -4.7164 H   0  0  0  0  0  0  0  0  0  0  0  0
    9.6513    3.8114   -5.9154 H   0  0  0  0  0  0  0  0  0  0  0  0
    5.4053    0.9681   -3.5845 H   0  0  0  0  0  0  0  0  0  0  0  0
    5.5458    4.2649   -2.8772 H   0  0  0  0  0  0  0  0  0  0  0  0
    5.6692    4.2978   -4.5940 H   0  0  0  0  0  0  0  0  0  0  0  0
    6.9832    4.7256   -3.4850 H   0  0  0  0  0  0  0  0  0  0  0  0
    7.4718    0.3440   -2.9719 H   0  0  0  0  0  0  0  0  0  0  0  0
    8.9826    1.0428   -2.5066 H   0  0  0  0  0  0  0  0  0  0  0  0
    8.8569    0.3138   -4.0941 H   0  0  0  0  0  0  0  0  0  0  0  0
   10.0593    3.1757   -2.1318 H   0  0  0  0  0  0  0  0  0  0  0  0
    9.4255    1.7255    0.4766 H   0  0  0  0  0  0  0  0  0  0  0  0
    8.7229    3.2591    1.1717 H   0  0  0  0  0  0  0  0  0  0  0  0
    9.8816    3.2767   -0.1228 H   0  0  0  0  0  0  0  0  0  0  0  0
    8.0500    0.5336    0.7281 H   0  0  0  0  0  0  0  0  0  0  0  0
    6.7243   -0.1468   -0.1135 H   0  0  0  0  0  0  0  0  0  0  0  0
    6.4842    0.6787    1.4680 H   0  0  0  0  0  0  0  0  0  0  0  0
  1  2  1  0  0  0  0
  1 26  1  0  0  0  0
  1 27  1  0  0  0  0
  1 28  1  0  0  0  0
  2  3  1  0  0  0  0
  2 24  2  3  0  0  0
  3  4  2  3  0  0  0
  3 29  1  0  0  0  0
  4  5  1  0  0  0  0
  4 30  1  0  0  0  0
  5  6  1  0  0  0  0
  5 13  2  3  0  0  0
  6  7  1  0  0  0  0
  6 31  1  0  0  0  0
  6 32  1  0  0  0  0
  7  8  1  0  0  0  0
  7 33  1  0  0  0  0
  7 34  1  0  0  0  0
  8  9  1  0  0  0  0
  8 35  1  0  0  0  0
  8 36  1  0  0  0  0
  9 10  1  0  0  0  0
  9 37  1  0  0  0  0
  9 38  1  0  0  0  0
 10 11  1  0  0  0  0
 10 39  1  0  0  0  0
 10 40  1  0  0  0  0
 11 12  1  0  0  0  0
 11 41  1  0  0  0  0
 11 42  1  0  0  0  0
 12 18  1  0  0  0  0
 12 43  1  0  0  0  0
 12 44  1  0  0  0  0
 13 14  1  0  0  0  0
 13 45  1  0  0  0  0
 14 15  1  0  0  0  0
 14 16  2  3  0  0  0
 15 46  1  0  0  0  0
 15 47  1  0  0  0  0
 15 48  1  0  0  0  0
 16 17  1  0  0  0  0
 16 18  1  0  0  0  0
 17 49  1  0  0  0  0
 17 50  1  0  0  0  0
 17 51  1  0  0  0  0
 18 19  2  3  0  0  0
 19 20  1  0  0  0  0
 19 52  1  0  0  0  0
 20 21  2  0  0  0  0
 20 22  1  0  0  0  0
 22 23  1  0  0  0  0
 22 24  1  0  0  0  0
 23 53  1  0  0  0  0
 23 54  1  0  0  0  0
 23 55  1  0  0  0  0
 24 25  1  0  0  0  0
 25 56  1  0  0  0  0
 25 57  1  0  0  0  0
 25 58  1  0  0  0  0
M  END
$$$$
