
 OpenBabel04232216463D

 65 65  0  0  0  0  0  0  0  0999 V2000
    5.0765    2.8289   -0.2748 C   0  0  0  0  0  0  0  0  0  0  0  0
    5.9401    2.4423   -1.4934 C   0  0  0  0  0  0  0  0  0  0  0  0
    5.1244    1.5596   -2.3305 C   0  0  0  0  0  0  0  0  0  0  0  0
    5.0089    0.2545   -1.9498 C   0  0  0  0  0  0  0  0  0  0  0  0
    5.5857   -0.3550   -0.6085 C   0  0  0  0  0  0  0  0  0  0  0  0
    4.6500   -0.8275    0.5438 C   0  0  0  0  0  0  0  0  0  0  0  0
    5.4018   -1.4044    1.7891 C   0  0  0  0  0  0  0  0  0  0  0  0
    6.2837   -0.3927    2.5443 C   0  0  0  0  0  0  0  0  0  0  0  0
    6.9473   -0.9904    3.7968 C   0  0  0  0  0  0  0  0  0  0  0  0
    7.8522    0.0289    4.5037 C   0  0  0  0  0  0  0  0  0  0  0  0
    8.5224   -0.5886    5.7310 C   0  0  0  0  0  0  0  0  0  0  0  0
    9.4298    0.4135    6.4423 C   0  0  0  0  0  0  0  0  0  0  0  0
   10.0899   -0.2256    7.6632 C   0  0  0  0  0  0  0  0  0  0  0  0
   10.9966    0.7727    8.3771 C   0  0  0  0  0  0  0  0  0  0  0  0
   11.6573    0.1406    9.5990 C   0  0  0  0  0  0  0  0  0  0  0  0
   12.5584    1.1384   10.3058 C   0  0  0  0  0  0  0  0  0  0  0  0
    4.9518   -0.5244   -3.1847 C   0  0  0  0  0  0  0  0  0  0  0  0
    6.1829   -0.9766   -3.4795 C   0  0  0  0  0  0  0  0  0  0  0  0
    7.0421   -0.4436   -4.5012 C   0  0  0  0  0  0  0  0  0  0  0  0
    8.3824   -0.4406   -4.3951 C   0  0  0  0  0  0  0  0  0  0  0  0
    9.1200   -0.7424   -3.0733 C   0  0  0  0  0  0  0  0  0  0  0  0
    9.0471    0.1582   -5.4269 N   0  0  0  0  0  0  0  0  0  0  0  0
   10.2771    0.4496   -5.1697 C   0  0  0  0  0  0  0  0  0  0  0  0
   10.4141    1.9229   -5.0759 C   0  0  0  0  0  0  0  0  0  0  0  0
    9.8136    2.7914   -4.3174 N   0  0  0  0  0  0  0  0  0  0  0  0
    9.0308    2.2847   -3.1591 N   0  0  0  0  0  0  0  0  0  0  0  0
    7.8033    2.5894   -3.0847 N   0  0  0  0  0  0  0  0  0  0  0  0
    7.1831    2.8134   -1.7207 N   0  0  0  0  0  0  0  0  0  0  0  0
    4.2581    3.4698   -0.6321 H   0  0  0  0  0  0  0  0  0  0  0  0
    5.5741    3.2416    0.5891 H   0  0  0  0  0  0  0  0  0  0  0  0
    4.5240    1.9315    0.0736 H   0  0  0  0  0  0  0  0  0  0  0  0
    4.7796    2.0008   -3.2600 H   0  0  0  0  0  0  0  0  0  0  0  0
    6.2780    0.3720   -0.1690 H   0  0  0  0  0  0  0  0  0  0  0  0
    6.2166   -1.2165   -0.8314 H   0  0  0  0  0  0  0  0  0  0  0  0
    3.9856   -1.6167    0.1694 H   0  0  0  0  0  0  0  0  0  0  0  0
    4.0072   -0.0143    0.8945 H   0  0  0  0  0  0  0  0  0  0  0  0
    6.0115   -2.2674    1.4923 H   0  0  0  0  0  0  0  0  0  0  0  0
    4.6541   -1.7917    2.4944 H   0  0  0  0  0  0  0  0  0  0  0  0
    5.6699    0.4658    2.8458 H   0  0  0  0  0  0  0  0  0  0  0  0
    7.0702   -0.0200    1.8802 H   0  0  0  0  0  0  0  0  0  0  0  0
    7.5479   -1.8678    3.5164 H   0  0  0  0  0  0  0  0  0  0  0  0
    6.1806   -1.3371    4.4995 H   0  0  0  0  0  0  0  0  0  0  0  0
    7.2609    0.9017    4.8086 H   0  0  0  0  0  0  0  0  0  0  0  0
    8.6213    0.3871    3.8089 H   0  0  0  0  0  0  0  0  0  0  0  0
    9.1137   -1.4613    5.4276 H   0  0  0  0  0  0  0  0  0  0  0  0
    7.7559   -0.9447    6.4302 H   0  0  0  0  0  0  0  0  0  0  0  0
    8.8453    1.2874    6.7550 H   0  0  0  0  0  0  0  0  0  0  0  0
   10.2027    0.7712    5.7511 H   0  0  0  0  0  0  0  0  0  0  0  0
   10.6757   -1.0992    7.3519 H   0  0  0  0  0  0  0  0  0  0  0  0
    9.3181   -0.5840    8.3554 H   0  0  0  0  0  0  0  0  0  0  0  0
   10.4099    1.6465    8.6857 H   0  0  0  0  0  0  0  0  0  0  0  0
   11.7680    1.1295    7.6838 H   0  0  0  0  0  0  0  0  0  0  0  0
   12.2485   -0.7312    9.2952 H   0  0  0  0  0  0  0  0  0  0  0  0
   10.8901   -0.2141   10.2971 H   0  0  0  0  0  0  0  0  0  0  0  0
   13.3516    1.4885    9.6375 H   0  0  0  0  0  0  0  0  0  0  0  0
   13.0264    0.6755   11.1793 H   0  0  0  0  0  0  0  0  0  0  0  0
   11.9863    2.0082   10.6445 H   0  0  0  0  0  0  0  0  0  0  0  0
    4.3720   -0.0643   -4.0015 H   0  0  0  0  0  0  0  0  0  0  0  0
    6.7694   -1.3947   -2.6680 H   0  0  0  0  0  0  0  0  0  0  0  0
    6.5870    0.1384   -5.3282 H   0  0  0  0  0  0  0  0  0  0  0  0
    8.5136   -0.6111   -2.1925 H   0  0  0  0  0  0  0  0  0  0  0  0
    9.9424   -0.0548   -2.8940 H   0  0  0  0  0  0  0  0  0  0  0  0
    9.5555   -1.7492   -3.1006 H   0  0  0  0  0  0  0  0  0  0  0  0
   11.0482   -0.1698   -4.7586 H   0  0  0  0  0  0  0  0  0  0  0  0
   11.1585    2.2755   -5.9203 H   0  0  0  0  0  0  0  0  0  0  0  0
  1  2  1  0  0  0  0
  1 29  1  0  0  0  0
  1 30  1  0  0  0  0
  1 31  1  0  0  0  0
  2  3  1  0  0  0  0
  2 28  2  0  0  0  0
  3  4  2  0  0  0  0
  3 32  1  0  0  0  0
  4  5  1  0  0  0  0
  4 17  1  0  0  0  0
  5  6  1  0  0  0  0
  5 33  1  0  0  0  0
  5 34  1  0  0  0  0
  6  7  1  0  0  0  0
  6 35  1  0  0  0  0
  6 36  1  0  0  0  0
  7  8  1  0  0  0  0
  7 37  1  0  0  0  0
  7 38  1  0  0  0  0
  8  9  1  0  0  0  0
  8 39  1  0  0  0  0
  8 40  1  0  0  0  0
  9 10  1  0  0  0  0
  9 41  1  0  0  0  0
  9 42  1  0  0  0  0
 10 11  1  0  0  0  0
 10 43  1  0  0  0  0
 10 44  1  0  0  0  0
 11 12  1  0  0  0  0
 11 45  1  0  0  0  0
 11 46  1  0  0  0  0
 12 13  1  0  0  0  0
 12 47  1  0  0  0  0
 12 48  1  0  0  0  0
 13 14  1  0  0  0  0
 13 49  1  0  0  0  0
 13 50  1  0  0  0  0
 14 15  1  0  0  0  0
 14 51  1  0  0  0  0
 14 52  1  0  0  0  0
 15 16  1  0  0  0  0
 15 53  1  0  0  0  0
 15 54  1  0  0  0  0
 16 55  1  0  0  0  0
 16 56  1  0  0  0  0
 16 57  1  0  0  0  0
 17 18  2  0  0  0  0
 17 58  1  0  0  0  0
 18 19  1  0  0  0  0
 18 59  1  0  0  0  0
 19 20  2  0  0  0  0
 19 60  1  0  0  0  0
 20 21  1  0  0  0  0
 20 22  1  0  0  0  0
 21 61  1  0  0  0  0
 21 62  1  0  0  0  0
 21 63  1  0  0  0  0
 22 23  2  0  0  0  0
 23 24  1  0  0  0  0
 23 64  1  0  0  0  0
 24 25  2  0  0  0  0
 24 65  1  0  0  0  0
 25 26  1  0  0  0  0
 26 27  2  0  0  0  0
 27 28  1  0  0  0  0
M  END
$$$$
