
 OpenBabel04232216593D

216215  0  0  0  0  0  0  0  0999 V2000
    2.7513    0.1298   -0.9958 O   0  0  0  0  0  0  0  0  0  0  0  0
    2.2148    0.0016    0.1174 C   0  0  0  0  0  0  0  0  0  0  0  0
    2.9888   -0.1415    1.3897 C   0  0  0  0  0  0  0  0  0  0  0  0
    4.4858   -0.1099    1.1235 C   0  0  0  0  0  0  0  0  0  0  0  0
    5.2595   -0.2560    2.4205 C   0  0  0  0  0  0  0  0  0  0  0  0
    6.7540   -0.2241    2.1524 C   0  0  0  0  0  0  0  0  0  0  0  0
    7.5185   -0.3728    3.4555 C   0  0  0  0  0  0  0  0  0  0  0  0
    9.0113   -0.3429    3.1867 C   0  0  0  0  0  0  0  0  0  0  0  0
    9.7748   -0.4917    4.4890 C   0  0  0  0  0  0  0  0  0  0  0  0
   11.2670   -0.4636    4.2187 C   0  0  0  0  0  0  0  0  0  0  0  0
   12.0298   -0.6142    5.5207 C   0  0  0  0  0  0  0  0  0  0  0  0
   13.5217   -0.5842    5.2503 C   0  0  0  0  0  0  0  0  0  0  0  0
   14.2843   -0.7369    6.5522 C   0  0  0  0  0  0  0  0  0  0  0  0
   15.7762   -0.7087    6.2815 C   0  0  0  0  0  0  0  0  0  0  0  0
   16.5388   -0.8614    7.5833 C   0  0  0  0  0  0  0  0  0  0  0  0
   18.0306   -0.8314    7.3128 C   0  0  0  0  0  0  0  0  0  0  0  0
   18.7932   -0.9861    8.6144 C   0  0  0  0  0  0  0  0  0  0  0  0
   20.2850   -0.9579    8.3437 C   0  0  0  0  0  0  0  0  0  0  0  0
   21.0476   -1.1107    9.6455 C   0  0  0  0  0  0  0  0  0  0  0  0
   22.5395   -1.0806    9.3751 C   0  0  0  0  0  0  0  0  0  0  0  0
   23.3023   -1.2352   10.6766 C   0  0  0  0  0  0  0  0  0  0  0  0
   24.7942   -1.2031   10.4066 C   0  0  0  0  0  0  0  0  0  0  0  0
   25.5577   -1.3558   11.7082 C   0  0  0  0  0  0  0  0  0  0  0  0
   27.0504   -1.3217   11.4379 C   0  0  0  0  0  0  0  0  0  0  0  0
   27.8157   -1.4742   12.7381 C   0  0  0  0  0  0  0  0  0  0  0  0
   29.3106   -1.4427   12.4735 C   0  0  0  0  0  0  0  0  0  0  0  0
   30.0611   -1.5957   13.7782 C   0  0  0  0  0  0  0  0  0  0  0  0
   31.4590   -1.5649   13.5190 O   0  0  0  0  0  0  0  0  0  0  0  0
   32.1689   -1.7085   14.7429 C   0  0  0  0  0  0  0  0  0  0  0  0
   33.6552   -1.6751   14.4618 C   0  0  0  0  0  0  0  0  0  0  0  0
   34.4250   -1.8277   15.7625 C   0  0  0  0  0  0  0  0  0  0  0  0
   35.9185   -1.7958   15.4947 C   0  0  0  0  0  0  0  0  0  0  0  0
   36.6839   -1.9505   16.7960 C   0  0  0  0  0  0  0  0  0  0  0  0
   38.1795   -1.9191   16.5321 C   0  0  0  0  0  0  0  0  0  0  0  0
   38.9303   -2.0742   17.8367 C   0  0  0  0  0  0  0  0  0  0  0  0
   40.3277   -2.0432   17.5771 O   0  0  0  0  0  0  0  0  0  0  0  0
   41.0384   -2.1869   18.8009 C   0  0  0  0  0  0  0  0  0  0  0  0
   42.5247   -2.1554   18.5196 C   0  0  0  0  0  0  0  0  0  0  0  0
   43.2945   -2.3100   19.8200 C   0  0  0  0  0  0  0  0  0  0  0  0
   44.7874   -2.2782   19.5524 C   0  0  0  0  0  0  0  0  0  0  0  0
   45.5537   -2.4348   20.8531 C   0  0  0  0  0  0  0  0  0  0  0  0
   47.0491   -2.4054   20.5885 C   0  0  0  0  0  0  0  0  0  0  0  0
   47.7976   -2.5628   21.8934 C   0  0  0  0  0  0  0  0  0  0  0  0
   49.1937   -2.5392   21.6396 O   0  0  0  0  0  0  0  0  0  0  0  0
   49.9068   -2.6844   22.8634 C   0  0  0  0  0  0  0  0  0  0  0  0
   51.3935   -2.6529   22.5833 C   0  0  0  0  0  0  0  0  0  0  0  0
   51.7806   -1.3256   21.9337 C   0  0  0  0  0  0  0  0  0  0  0  0
   53.2683   -1.2914   21.6599 C   0  0  0  0  0  0  0  0  0  0  0  0
   53.6242   -2.3523   20.7785 O   0  0  0  0  0  0  0  0  0  0  0  0
   55.0145   -2.3330   20.5188 C   0  0  0  0  0  0  0  0  0  0  0  0
   55.3512   -3.4709   19.5866 C   0  0  0  0  0  0  0  0  0  0  0  0
   56.7446   -3.4442   19.3116 O   0  0  0  0  0  0  0  0  0  0  0  0
   57.0918   -4.5146   18.4390 C   0  0  0  0  0  0  0  0  0  0  0  0
   58.5824   -4.4803   18.1644 C   0  0  0  0  0  0  0  0  0  0  0  0
   59.3632   -4.6319   19.4658 C   0  0  0  0  0  0  0  0  0  0  0  0
   60.8492   -4.5980   19.1871 C   0  0  0  0  0  0  0  0  0  0  0  0
   61.5704   -4.7471   20.4069 O   0  0  0  0  0  0  0  0  0  0  0  0
   62.9667   -4.7134   20.1507 C   0  0  0  0  0  0  0  0  0  0  0  0
   63.7042   -4.8678   21.4603 C   0  0  0  0  0  0  0  0  0  0  0  0
   65.1027   -4.8441   21.2116 O   0  0  0  0  0  0  0  0  0  0  0  0
   65.8224   -4.9843   22.4348 C   0  0  0  0  0  0  0  0  0  0  0  0
   67.3107   -4.9496   22.1512 C   0  0  0  0  0  0  0  0  0  0  0  0
   67.6925   -3.6251   21.4996 C   0  0  0  0  0  0  0  0  0  0  0  0
   69.1805   -3.5914   21.2205 C   0  0  0  0  0  0  0  0  0  0  0  0
   69.5138   -2.3503   20.6135 O   0  0  0  0  0  0  0  0  0  0  0  0
   70.9129   -2.3072   20.3475 C   0  0  0  0  0  0  0  0  0  0  0  0
   71.2505   -0.9828   19.7061 C   0  0  0  0  0  0  0  0  0  0  0  0
   72.6444   -0.9387   19.4443 O   0  0  0  0  0  0  0  0  0  0  0  0
   72.9892    0.3029   18.8361 C   0  0  0  0  0  0  0  0  0  0  0  0
   74.4773    0.3344   18.5564 C   0  0  0  0  0  0  0  0  0  0  0  0
   74.8644   -0.8027   17.6114 C   0  0  0  0  0  0  0  0  0  0  0  0
   76.3518   -0.7674   17.3265 C   0  0  0  0  0  0  0  0  0  0  0  0
   77.0726   -0.9163   18.5459 O   0  0  0  0  0  0  0  0  0  0  0  0
   78.4695   -0.8783   18.2934 C   0  0  0  0  0  0  0  0  0  0  0  0
   79.2099   -1.0353   19.5997 C   0  0  0  0  0  0  0  0  0  0  0  0
   80.6093   -1.0029   19.3433 O   0  0  0  0  0  0  0  0  0  0  0  0
   81.3266   -1.1499   20.5631 C   0  0  0  0  0  0  0  0  0  0  0  0
   82.8152   -1.1122   20.2796 C   0  0  0  0  0  0  0  0  0  0  0  0
   83.5974   -1.2664   21.5768 C   0  0  0  0  0  0  0  0  0  0  0  0
   85.0869   -1.2301   21.3051 C   0  0  0  0  0  0  0  0  0  0  0  0
    1.1223   -0.0101    0.2005 H   0  0  0  0  0  0  0  0  0  0  0  0
    2.7045   -1.0920    1.8545 H   0  0  0  0  0  0  0  0  0  0  0  0
    2.7027    0.6804    2.0552 H   0  0  0  0  0  0  0  0  0  0  0  0
    4.7602    0.8327    0.6300 H   0  0  0  0  0  0  0  0  0  0  0  0
    4.7619   -0.9177    0.4318 H   0  0  0  0  0  0  0  0  0  0  0  0
    4.9910   -1.2008    2.9080 H   0  0  0  0  0  0  0  0  0  0  0  0
    4.9892    0.5554    3.1069 H   0  0  0  0  0  0  0  0  0  0  0  0
    7.0269    0.7214    1.6679 H   0  0  0  0  0  0  0  0  0  0  0  0
    7.0282   -1.0350    1.4666 H   0  0  0  0  0  0  0  0  0  0  0  0
    7.2475   -1.3176    3.9423 H   0  0  0  0  0  0  0  0  0  0  0  0
    7.2483    0.4384    4.1423 H   0  0  0  0  0  0  0  0  0  0  0  0
    9.2846    0.6019    2.7010 H   0  0  0  0  0  0  0  0  0  0  0  0
    9.2837   -1.1546    2.5009 H   0  0  0  0  0  0  0  0  0  0  0  0
    9.5021   -1.4359    4.9761 H   0  0  0  0  0  0  0  0  0  0  0  0
    9.5051    0.3207    5.1749 H   0  0  0  0  0  0  0  0  0  0  0  0
   11.5407    0.4812    3.7333 H   0  0  0  0  0  0  0  0  0  0  0  0
   11.5374   -1.2751    3.5321 H   0  0  0  0  0  0  0  0  0  0  0  0
   11.7575   -1.5598    6.0055 H   0  0  0  0  0  0  0  0  0  0  0  0
   11.7589    0.1965    6.2081 H   0  0  0  0  0  0  0  0  0  0  0  0
   13.7944    0.3619    4.7669 H   0  0  0  0  0  0  0  0  0  0  0  0
   13.7926   -1.3941    4.5620 H   0  0  0  0  0  0  0  0  0  0  0  0
   14.0107   -1.6823    7.0363 H   0  0  0  0  0  0  0  0  0  0  0  0
   14.0145    0.0738    7.2400 H   0  0  0  0  0  0  0  0  0  0  0  0
   16.0498    0.2367    5.7973 H   0  0  0  0  0  0  0  0  0  0  0  0
   16.0460   -1.5194    5.5936 H   0  0  0  0  0  0  0  0  0  0  0  0
   16.2661   -1.8076    8.0667 H   0  0  0  0  0  0  0  0  0  0  0  0
   16.2679   -0.0516    8.2717 H   0  0  0  0  0  0  0  0  0  0  0  0
   18.3034    0.1153    6.8307 H   0  0  0  0  0  0  0  0  0  0  0  0
   18.3013   -1.6403    6.6233 H   0  0  0  0  0  0  0  0  0  0  0  0
   18.5193   -1.9321    9.0972 H   0  0  0  0  0  0  0  0  0  0  0  0
   18.5235   -0.1763    9.3033 H   0  0  0  0  0  0  0  0  0  0  0  0
   20.5587   -0.0125    7.8596 H   0  0  0  0  0  0  0  0  0  0  0  0
   20.5548   -1.7686    7.6558 H   0  0  0  0  0  0  0  0  0  0  0  0
   20.7749   -2.0568   10.1289 H   0  0  0  0  0  0  0  0  0  0  0  0
   20.7768   -0.3008   10.3339 H   0  0  0  0  0  0  0  0  0  0  0  0
   22.8122   -0.1338    8.8929 H   0  0  0  0  0  0  0  0  0  0  0  0
   22.8101   -1.8895    8.6855 H   0  0  0  0  0  0  0  0  0  0  0  0
   23.0303   -2.1826   11.1580 H   0  0  0  0  0  0  0  0  0  0  0  0
   23.0303   -0.4271   11.3667 H   0  0  0  0  0  0  0  0  0  0  0  0
   25.0655   -0.2563    9.9237 H   0  0  0  0  0  0  0  0  0  0  0  0
   25.0659   -2.0121    9.7175 H   0  0  0  0  0  0  0  0  0  0  0  0
   25.2866   -2.3032   12.1902 H   0  0  0  0  0  0  0  0  0  0  0  0
   25.2841   -0.5476   12.3977 H   0  0  0  0  0  0  0  0  0  0  0  0
   27.3197   -0.3741   10.9559 H   0  0  0  0  0  0  0  0  0  0  0  0
   27.3223   -2.1300   10.7484 H   0  0  0  0  0  0  0  0  0  0  0  0
   27.5415   -2.4204   13.2215 H   0  0  0  0  0  0  0  0  0  0  0  0
   27.5410   -0.6658   13.4276 H   0  0  0  0  0  0  0  0  0  0  0  0
   29.5941   -0.5013   11.9876 H   0  0  0  0  0  0  0  0  0  0  0  0
   29.5946   -2.2457   11.7827 H   0  0  0  0  0  0  0  0  0  0  0  0
   29.7994   -2.5501   14.2500 H   0  0  0  0  0  0  0  0  0  0  0  0
   29.7989   -0.7768   14.4583 H   0  0  0  0  0  0  0  0  0  0  0  0
   31.8985   -2.6624   15.2106 H   0  0  0  0  0  0  0  0  0  0  0  0
   31.8981   -0.8891   15.4189 H   0  0  0  0  0  0  0  0  0  0  0  0
   33.9208   -0.7328   13.9675 H   0  0  0  0  0  0  0  0  0  0  0  0
   33.9213   -2.4771   13.7626 H   0  0  0  0  0  0  0  0  0  0  0  0
   34.1540   -2.7743   16.2474 H   0  0  0  0  0  0  0  0  0  0  0  0
   34.1536   -1.0193   16.4535 H   0  0  0  0  0  0  0  0  0  0  0  0
   36.1895   -0.8484   15.0147 H   0  0  0  0  0  0  0  0  0  0  0  0
   36.1896   -2.6043   14.8060 H   0  0  0  0  0  0  0  0  0  0  0  0
   36.4102   -2.8976   17.2783 H   0  0  0  0  0  0  0  0  0  0  0  0
   36.4101   -1.1428   17.4869 H   0  0  0  0  0  0  0  0  0  0  0  0
   38.4635   -0.9772   16.0473 H   0  0  0  0  0  0  0  0  0  0  0  0
   38.4635   -2.7212   15.8400 H   0  0  0  0  0  0  0  0  0  0  0  0
   38.6684   -3.0292   18.3070 H   0  0  0  0  0  0  0  0  0  0  0  0
   38.6683   -1.2560   18.5177 H   0  0  0  0  0  0  0  0  0  0  0  0
   40.7669   -3.1401   19.2693 H   0  0  0  0  0  0  0  0  0  0  0  0
   40.7686   -1.3667   19.4763 H   0  0  0  0  0  0  0  0  0  0  0  0
   42.7915   -1.2131   18.0258 H   0  0  0  0  0  0  0  0  0  0  0  0
   42.7894   -2.9574   17.8197 H   0  0  0  0  0  0  0  0  0  0  0  0
   43.0232   -3.2572   20.3036 H   0  0  0  0  0  0  0  0  0  0  0  0
   43.0233   -1.5026   20.5122 H   0  0  0  0  0  0  0  0  0  0  0  0
   45.0593   -1.3302   19.0737 H   0  0  0  0  0  0  0  0  0  0  0  0
   45.0588   -3.0858   18.8626 H   0  0  0  0  0  0  0  0  0  0  0  0
   45.2785   -3.3820   21.3351 H   0  0  0  0  0  0  0  0  0  0  0  0
   45.2811   -1.6273   21.5449 H   0  0  0  0  0  0  0  0  0  0  0  0
   47.3344   -1.4635   20.1043 H   0  0  0  0  0  0  0  0  0  0  0  0
   47.3317   -3.2075   19.8958 H   0  0  0  0  0  0  0  0  0  0  0  0
   47.5361   -3.5171   22.3627 H   0  0  0  0  0  0  0  0  0  0  0  0
   47.5394   -1.7446   22.5744 H   0  0  0  0  0  0  0  0  0  0  0  0
   49.6394   -3.6383   23.3268 H   0  0  0  0  0  0  0  0  0  0  0  0
   49.6390   -1.8648   23.5391 H   0  0  0  0  0  0  0  0  0  0  0  0
   51.6624   -3.4856   21.9221 H   0  0  0  0  0  0  0  0  0  0  0  0
   51.9488   -2.7901   23.5191 H   0  0  0  0  0  0  0  0  0  0  0  0
   51.5063   -0.4910   22.5916 H   0  0  0  0  0  0  0  0  0  0  0  0
   51.2298   -1.1910   20.9949 H   0  0  0  0  0  0  0  0  0  0  0  0
   53.8201   -1.4029   22.5996 H   0  0  0  0  0  0  0  0  0  0  0  0
   53.5356   -0.3367   21.1978 H   0  0  0  0  0  0  0  0  0  0  0  0
   55.5704   -2.4367   21.4564 H   0  0  0  0  0  0  0  0  0  0  0  0
   55.2889   -1.3775   20.0611 H   0  0  0  0  0  0  0  0  0  0  0  0
   54.7927   -3.3695   18.6501 H   0  0  0  0  0  0  0  0  0  0  0  0
   55.0785   -4.4280   20.0453 H   0  0  0  0  0  0  0  0  0  0  0  0
   56.5422   -4.4042   17.5002 H   0  0  0  0  0  0  0  0  0  0  0  0
   56.8236   -5.4681   18.9073 H   0  0  0  0  0  0  0  0  0  0  0  0
   58.8503   -3.5330   17.6804 H   0  0  0  0  0  0  0  0  0  0  0  0
   58.8473   -5.2862   17.4695 H   0  0  0  0  0  0  0  0  0  0  0  0
   59.0983   -5.5742   19.9618 H   0  0  0  0  0  0  0  0  0  0  0  0
   59.1024   -3.8322   20.1700 H   0  0  0  0  0  0  0  0  0  0  0  0
   61.1188   -3.6437   18.7208 H   0  0  0  0  0  0  0  0  0  0  0  0
   61.1187   -5.4159   18.5096 H   0  0  0  0  0  0  0  0  0  0  0  0
   63.2385   -3.7634   19.6766 H   0  0  0  0  0  0  0  0  0  0  0  0
   63.2396   -5.5263   19.4686 H   0  0  0  0  0  0  0  0  0  0  0  0
   63.4328   -5.8167   21.9349 H   0  0  0  0  0  0  0  0  0  0  0  0
   63.4328   -4.0547   22.1428 H   0  0  0  0  0  0  0  0  0  0  0  0
   65.5569   -5.9381   22.8993 H   0  0  0  0  0  0  0  0  0  0  0  0
   65.5528   -4.1637   23.1088 H   0  0  0  0  0  0  0  0  0  0  0  0
   67.5829   -5.7799   21.4880 H   0  0  0  0  0  0  0  0  0  0  0  0
   67.8670   -5.0841   23.0862 H   0  0  0  0  0  0  0  0  0  0  0  0
   67.4151   -2.7863   22.1510 H   0  0  0  0  0  0  0  0  0  0  0  0
   67.1372   -3.4790   20.5643 H   0  0  0  0  0  0  0  0  0  0  0  0
   69.4481   -4.4101   20.5435 H   0  0  0  0  0  0  0  0  0  0  0  0
   69.7359   -3.7007   22.1584 H   0  0  0  0  0  0  0  0  0  0  0  0
   71.1897   -3.1303   19.6779 H   0  0  0  0  0  0  0  0  0  0  0  0
   71.4751   -2.4261   21.2815 H   0  0  0  0  0  0  0  0  0  0  0  0
   70.9761   -0.1608   20.3754 H   0  0  0  0  0  0  0  0  0  0  0  0
   70.6913   -0.8652   18.7715 H   0  0  0  0  0  0  0  0  0  0  0  0
   72.7247    1.1207   19.5125 H   0  0  0  0  0  0  0  0  0  0  0  0
   72.4340    0.4136   17.8983 H   0  0  0  0  0  0  0  0  0  0  0  0
   75.0321    0.2440   19.4984 H   0  0  0  0  0  0  0  0  0  0  0  0
   74.7493    1.3000   18.1127 H   0  0  0  0  0  0  0  0  0  0  0  0
   74.3059   -0.7158   16.6713 H   0  0  0  0  0  0  0  0  0  0  0  0
   74.5965   -1.7682   18.0581 H   0  0  0  0  0  0  0  0  0  0  0  0
   76.6167    0.1886   16.8618 H   0  0  0  0  0  0  0  0  0  0  0  0
   76.6156   -1.5852   16.6499 H   0  0  0  0  0  0  0  0  0  0  0  0
   78.7379    0.0733   17.8215 H   0  0  0  0  0  0  0  0  0  0  0  0
   78.7405   -1.6885   17.6083 H   0  0  0  0  0  0  0  0  0  0  0  0
   78.9387   -1.9866   20.0726 H   0  0  0  0  0  0  0  0  0  0  0  0
   78.9370   -0.2247   20.2858 H   0  0  0  0  0  0  0  0  0  0  0  0
   81.0600   -2.1065   21.0266 H   0  0  0  0  0  0  0  0  0  0  0  0
   81.0562   -0.3336   21.2424 H   0  0  0  0  0  0  0  0  0  0  0  0
   83.0756   -0.1681   19.7853 H   0  0  0  0  0  0  0  0  0  0  0  0
   83.0798   -1.9109   19.5756 H   0  0  0  0  0  0  0  0  0  0  0  0
   83.3351   -2.2149   22.0607 H   0  0  0  0  0  0  0  0  0  0  0  0
   83.3309   -0.4610   22.2717 H   0  0  0  0  0  0  0  0  0  0  0  0
   85.3739   -2.0422   20.6298 H   0  0  0  0  0  0  0  0  0  0  0  0
   85.6454   -1.3410   22.2382 H   0  0  0  0  0  0  0  0  0  0  0  0
   85.3696   -0.2797   20.8419 H   0  0  0  0  0  0  0  0  0  0  0  0
  1  2  2  0  0  0  0
  2  3  1  0  0  0  0
  2 81  1  0  0  0  0
  3  4  1  0  0  0  0
  3 82  1  0  0  0  0
  3 83  1  0  0  0  0
  4  5  1  0  0  0  0
  4 84  1  0  0  0  0
  4 85  1  0  0  0  0
  5  6  1  0  0  0  0
  5 86  1  0  0  0  0
  5 87  1  0  0  0  0
  6  7  1  0  0  0  0
  6 88  1  0  0  0  0
  6 89  1  0  0  0  0
  7  8  1  0  0  0  0
  7 90  1  0  0  0  0
  7 91  1  0  0  0  0
  8  9  1  0  0  0  0
  8 92  1  0  0  0  0
  8 93  1  0  0  0  0
  9 10  1  0  0  0  0
  9 94  1  0  0  0  0
  9 95  1  0  0  0  0
 10 11  1  0  0  0  0
 10 96  1  0  0  0  0
 10 97  1  0  0  0  0
 11 12  1  0  0  0  0
 11 98  1  0  0  0  0
 11 99  1  0  0  0  0
 12 13  1  0  0  0  0
 12100  1  0  0  0  0
 12101  1  0  0  0  0
 13 14  1  0  0  0  0
 13102  1  0  0  0  0
 13103  1  0  0  0  0
 14 15  1  0  0  0  0
 14104  1  0  0  0  0
 14105  1  0  0  0  0
 15 16  1  0  0  0  0
 15106  1  0  0  0  0
 15107  1  0  0  0  0
 16 17  1  0  0  0  0
 16108  1  0  0  0  0
 16109  1  0  0  0  0
 17 18  1  0  0  0  0
 17110  1  0  0  0  0
 17111  1  0  0  0  0
 18 19  1  0  0  0  0
 18112  1  0  0  0  0
 18113  1  0  0  0  0
 19 20  1  0  0  0  0
 19114  1  0  0  0  0
 19115  1  0  0  0  0
 20 21  1  0  0  0  0
 20116  1  0  0  0  0
 20117  1  0  0  0  0
 21 22  1  0  0  0  0
 21118  1  0  0  0  0
 21119  1  0  0  0  0
 22 23  1  0  0  0  0
 22120  1  0  0  0  0
 22121  1  0  0  0  0
 23 24  1  0  0  0  0
 23122  1  0  0  0  0
 23123  1  0  0  0  0
 24 25  1  0  0  0  0
 24124  1  0  0  0  0
 24125  1  0  0  0  0
 25 26  1  0  0  0  0
 25126  1  0  0  0  0
 25127  1  0  0  0  0
 26 27  1  0  0  0  0
 26128  1  0  0  0  0
 26129  1  0  0  0  0
 27 28  1  0  0  0  0
 27130  1  0  0  0  0
 27131  1  0  0  0  0
 28 29  1  0  0  0  0
 29 30  1  0  0  0  0
 29132  1  0  0  0  0
 29133  1  0  0  0  0
 30 31  1  0  0  0  0
 30134  1  0  0  0  0
 30135  1  0  0  0  0
 31 32  1  0  0  0  0
 31136  1  0  0  0  0
 31137  1  0  0  0  0
 32 33  1  0  0  0  0
 32138  1  0  0  0  0
 32139  1  0  0  0  0
 33 34  1  0  0  0  0
 33140  1  0  0  0  0
 33141  1  0  0  0  0
 34 35  1  0  0  0  0
 34142  1  0  0  0  0
 34143  1  0  0  0  0
 35 36  1  0  0  0  0
 35144  1  0  0  0  0
 35145  1  0  0  0  0
 36 37  1  0  0  0  0
 37 38  1  0  0  0  0
 37146  1  0  0  0  0
 37147  1  0  0  0  0
 38 39  1  0  0  0  0
 38148  1  0  0  0  0
 38149  1  0  0  0  0
 39 40  1  0  0  0  0
 39150  1  0  0  0  0
 39151  1  0  0  0  0
 40 41  1  0  0  0  0
 40152  1  0  0  0  0
 40153  1  0  0  0  0
 41 42  1  0  0  0  0
 41154  1  0  0  0  0
 41155  1  0  0  0  0
 42 43  1  0  0  0  0
 42156  1  0  0  0  0
 42157  1  0  0  0  0
 43 44  1  0  0  0  0
 43158  1  0  0  0  0
 43159  1  0  0  0  0
 44 45  1  0  0  0  0
 45 46  1  0  0  0  0
 45160  1  0  0  0  0
 45161  1  0  0  0  0
 46 47  1  0  0  0  0
 46162  1  0  0  0  0
 46163  1  0  0  0  0
 47 48  1  0  0  0  0
 47164  1  0  0  0  0
 47165  1  0  0  0  0
 48 49  1  0  0  0  0
 48166  1  0  0  0  0
 48167  1  0  0  0  0
 49 50  1  0  0  0  0
 50 51  1  0  0  0  0
 50168  1  0  0  0  0
 50169  1  0  0  0  0
 51 52  1  0  0  0  0
 51170  1  0  0  0  0
 51171  1  0  0  0  0
 52 53  1  0  0  0  0
 53 54  1  0  0  0  0
 53172  1  0  0  0  0
 53173  1  0  0  0  0
 54 55  1  0  0  0  0
 54174  1  0  0  0  0
 54175  1  0  0  0  0
 55 56  1  0  0  0  0
 55176  1  0  0  0  0
 55177  1  0  0  0  0
 56 57  1  0  0  0  0
 56178  1  0  0  0  0
 56179  1  0  0  0  0
 57 58  1  0  0  0  0
 58 59  1  0  0  0  0
 58180  1  0  0  0  0
 58181  1  0  0  0  0
 59 60  1  0  0  0  0
 59182  1  0  0  0  0
 59183  1  0  0  0  0
 60 61  1  0  0  0  0
 61 62  1  0  0  0  0
 61184  1  0  0  0  0
 61185  1  0  0  0  0
 62 63  1  0  0  0  0
 62186  1  0  0  0  0
 62187  1  0  0  0  0
 63 64  1  0  0  0  0
 63188  1  0  0  0  0
 63189  1  0  0  0  0
 64 65  1  0  0  0  0
 64190  1  0  0  0  0
 64191  1  0  0  0  0
 65 66  1  0  0  0  0
 66 67  1  0  0  0  0
 66192  1  0  0  0  0
 66193  1  0  0  0  0
 67 68  1  0  0  0  0
 67194  1  0  0  0  0
 67195  1  0  0  0  0
 68 69  1  0  0  0  0
 69 70  1  0  0  0  0
 69196  1  0  0  0  0
 69197  1  0  0  0  0
 70 71  1  0  0  0  0
 70198  1  0  0  0  0
 70199  1  0  0  0  0
 71 72  1  0  0  0  0
 71200  1  0  0  0  0
 71201  1  0  0  0  0
 72 73  1  0  0  0  0
 72202  1  0  0  0  0
 72203  1  0  0  0  0
 73 74  1  0  0  0  0
 74 75  1  0  0  0  0
 74204  1  0  0  0  0
 74205  1  0  0  0  0
 75 76  1  0  0  0  0
 75206  1  0  0  0  0
 75207  1  0  0  0  0
 76 77  1  0  0  0  0
 77 78  1  0  0  0  0
 77208  1  0  0  0  0
 77209  1  0  0  0  0
 78 79  1  0  0  0  0
 78210  1  0  0  0  0
 78211  1  0  0  0  0
 79 80  1  0  0  0  0
 79212  1  0  0  0  0
 79213  1  0  0  0  0
 80214  1  0  0  0  0
 80215  1  0  0  0  0
 80216  1  0  0  0  0
M  END
$$$$
