
 OpenBabel04232216593D

228227  0  0  0  0  0  0  0  0999 V2000
    3.2714    2.5363   -0.4245 O   0  0  0  0  0  0  0  0  0  0  0  0
    4.0252    1.6488    0.0017 C   0  0  0  0  0  0  0  0  0  0  0  0
    4.2608    1.4759    1.4784 C   0  0  0  0  0  0  0  0  0  0  0  0
    4.7677    0.7353   -0.9475 C   0  0  0  0  0  0  0  0  0  0  0  0
    4.4345   -0.6256   -0.7188 O   0  0  0  0  0  0  0  0  0  0  0  0
    5.1452   -1.4575   -1.6257 C   0  0  0  0  0  0  0  0  0  0  0  0
    6.5421   -1.2965   -1.4392 O   0  0  0  0  0  0  0  0  0  0  0  0
    7.2447   -2.1272   -2.3471 C   0  0  0  0  0  0  0  0  0  0  0  0
    8.7289   -1.9305   -2.1375 C   0  0  0  0  0  0  0  0  0  0  0  0
    9.4970   -2.8197   -3.0974 C   0  0  0  0  0  0  0  0  0  0  0  0
   10.9890   -2.6345   -2.9015 C   0  0  0  0  0  0  0  0  0  0  0  0
   11.7518   -3.5275   -3.8623 C   0  0  0  0  0  0  0  0  0  0  0  0
   13.2440   -3.3424   -3.6637 C   0  0  0  0  0  0  0  0  0  0  0  0
   14.0069   -4.2332   -4.6251 C   0  0  0  0  0  0  0  0  0  0  0  0
   15.4988   -4.0493   -4.4248 C   0  0  0  0  0  0  0  0  0  0  0  0
   16.2616   -4.9401   -5.3862 C   0  0  0  0  0  0  0  0  0  0  0  0
   17.7533   -4.7547   -5.1872 C   0  0  0  0  0  0  0  0  0  0  0  0
   18.5160   -5.6470   -6.1472 C   0  0  0  0  0  0  0  0  0  0  0  0
   20.0078   -5.4630   -5.9468 C   0  0  0  0  0  0  0  0  0  0  0  0
   20.7704   -6.3538   -6.9081 C   0  0  0  0  0  0  0  0  0  0  0  0
   22.2622   -6.1684   -6.7091 C   0  0  0  0  0  0  0  0  0  0  0  0
   23.0249   -7.0576   -7.6719 C   0  0  0  0  0  0  0  0  0  0  0  0
   24.5166   -6.8707   -7.4742 C   0  0  0  0  0  0  0  0  0  0  0  0
   25.2793   -7.7585   -8.4383 C   0  0  0  0  0  0  0  0  0  0  0  0
   26.7710   -7.5701   -8.2421 C   0  0  0  0  0  0  0  0  0  0  0  0
   27.5337   -8.4579   -9.2062 C   0  0  0  0  0  0  0  0  0  0  0  0
   29.0254   -8.2710   -9.0085 C   0  0  0  0  0  0  0  0  0  0  0  0
   29.7881   -9.1588   -9.9726 C   0  0  0  0  0  0  0  0  0  0  0  0
   31.2798   -8.9719   -9.7750 C   0  0  0  0  0  0  0  0  0  0  0  0
   32.0425   -9.8597  -10.7391 C   0  0  0  0  0  0  0  0  0  0  0  0
   33.5342   -9.6743  -10.5401 C   0  0  0  0  0  0  0  0  0  0  0  0
   34.2969  -10.5621  -11.5042 C   0  0  0  0  0  0  0  0  0  0  0  0
   35.7886  -10.3766  -11.3052 C   0  0  0  0  0  0  0  0  0  0  0  0
   36.5513  -11.2645  -12.2692 C   0  0  0  0  0  0  0  0  0  0  0  0
   38.0430  -11.0805  -12.0689 C   0  0  0  0  0  0  0  0  0  0  0  0
   38.8057  -11.9698  -13.0316 C   0  0  0  0  0  0  0  0  0  0  0  0
   40.2974  -11.7844  -12.8326 C   0  0  0  0  0  0  0  0  0  0  0  0
   41.0601  -12.6722  -13.7967 C   0  0  0  0  0  0  0  0  0  0  0  0
   42.5519  -12.4882  -13.5964 C   0  0  0  0  0  0  0  0  0  0  0  0
   43.3145  -13.3745  -14.5618 C   0  0  0  0  0  0  0  0  0  0  0  0
   44.8063  -13.1906  -14.3614 C   0  0  0  0  0  0  0  0  0  0  0  0
   45.5689  -14.0769  -15.3269 C   0  0  0  0  0  0  0  0  0  0  0  0
   47.0607  -13.8930  -15.1265 C   0  0  0  0  0  0  0  0  0  0  0  0
   47.8233  -14.7793  -16.0920 C   0  0  0  0  0  0  0  0  0  0  0  0
   49.3151  -14.5953  -15.8916 C   0  0  0  0  0  0  0  0  0  0  0  0
   50.0777  -15.4817  -16.8571 C   0  0  0  0  0  0  0  0  0  0  0  0
   51.5695  -15.2977  -16.6567 C   0  0  0  0  0  0  0  0  0  0  0  0
   52.3321  -16.1840  -17.6222 C   0  0  0  0  0  0  0  0  0  0  0  0
   53.8239  -16.0016  -17.4205 C   0  0  0  0  0  0  0  0  0  0  0  0
   54.5865  -16.8894  -18.3845 C   0  0  0  0  0  0  0  0  0  0  0  0
   56.0783  -16.7054  -18.1842 C   0  0  0  0  0  0  0  0  0  0  0  0
   56.8409  -17.5932  -19.1483 C   0  0  0  0  0  0  0  0  0  0  0  0
   58.3327  -17.4078  -18.9493 C   0  0  0  0  0  0  0  0  0  0  0  0
   59.0953  -18.2971  -19.9120 C   0  0  0  0  0  0  0  0  0  0  0  0
   60.5871  -18.1132  -19.7117 C   0  0  0  0  0  0  0  0  0  0  0  0
   61.3498  -19.0024  -20.6744 C   0  0  0  0  0  0  0  0  0  0  0  0
   62.8415  -18.8170  -20.4754 C   0  0  0  0  0  0  0  0  0  0  0  0
   63.6042  -19.7063  -21.4381 C   0  0  0  0  0  0  0  0  0  0  0  0
   65.0959  -19.5209  -21.2391 C   0  0  0  0  0  0  0  0  0  0  0  0
   65.8586  -20.4102  -22.2018 C   0  0  0  0  0  0  0  0  0  0  0  0
   67.3503  -20.2247  -22.0028 C   0  0  0  0  0  0  0  0  0  0  0  0
   68.1130  -21.1140  -22.9656 C   0  0  0  0  0  0  0  0  0  0  0  0
   69.6047  -20.9286  -22.7666 C   0  0  0  0  0  0  0  0  0  0  0  0
   70.3674  -21.8179  -23.7293 C   0  0  0  0  0  0  0  0  0  0  0  0
   71.8591  -21.6325  -23.5303 C   0  0  0  0  0  0  0  0  0  0  0  0
   72.6218  -22.5218  -24.4930 C   0  0  0  0  0  0  0  0  0  0  0  0
   74.1135  -22.3378  -24.2927 C   0  0  0  0  0  0  0  0  0  0  0  0
   74.8762  -23.2271  -25.2554 C   0  0  0  0  0  0  0  0  0  0  0  0
   76.3679  -23.0431  -25.0550 C   0  0  0  0  0  0  0  0  0  0  0  0
   77.1306  -23.9324  -26.0177 C   0  0  0  0  0  0  0  0  0  0  0  0
   78.6223  -23.7485  -25.8174 C   0  0  0  0  0  0  0  0  0  0  0  0
   79.3851  -24.6378  -26.7802 C   0  0  0  0  0  0  0  0  0  0  0  0
   80.8772  -24.4524  -26.5812 C   0  0  0  0  0  0  0  0  0  0  0  0
   81.6407  -25.3417  -27.5439 C   0  0  0  0  0  0  0  0  0  0  0  0
   83.1337  -25.1564  -27.3450 C   0  0  0  0  0  0  0  0  0  0  0  0
   83.8984  -26.0440  -28.3089 C   0  0  0  0  0  0  0  0  0  0  0  0
   85.3962  -25.8616  -28.1162 C   0  0  0  0  0  0  0  0  0  0  0  0
   86.1571  -26.7476  -29.0784 C   0  0  0  0  0  0  0  0  0  0  0  0
    3.6682    2.2086    2.0347 H   0  0  0  0  0  0  0  0  0  0  0  0
    5.3165    1.6344    1.7148 H   0  0  0  0  0  0  0  0  0  0  0  0
    3.9515    0.4754    1.7878 H   0  0  0  0  0  0  0  0  0  0  0  0
    5.8441    0.8992   -0.8016 H   0  0  0  0  0  0  0  0  0  0  0  0
    4.5020    1.0140   -1.9749 H   0  0  0  0  0  0  0  0  0  0  0  0
    4.8682   -1.1972   -2.6559 H   0  0  0  0  0  0  0  0  0  0  0  0
    4.8710   -2.4997   -1.4323 H   0  0  0  0  0  0  0  0  0  0  0  0
    6.9708   -1.8603   -3.3743 H   0  0  0  0  0  0  0  0  0  0  0  0
    6.9721   -3.1716   -2.1607 H   0  0  0  0  0  0  0  0  0  0  0  0
    8.9945   -2.1647   -1.0988 H   0  0  0  0  0  0  0  0  0  0  0  0
    8.9935   -0.8767   -2.2928 H   0  0  0  0  0  0  0  0  0  0  0  0
    9.2244   -2.5757   -4.1319 H   0  0  0  0  0  0  0  0  0  0  0  0
    9.2273   -3.8701   -2.9301 H   0  0  0  0  0  0  0  0  0  0  0  0
   11.2626   -2.8797   -1.8682 H   0  0  0  0  0  0  0  0  0  0  0  0
   11.2601   -1.5858   -3.0728 H   0  0  0  0  0  0  0  0  0  0  0  0
   11.4801   -3.2822   -4.8964 H   0  0  0  0  0  0  0  0  0  0  0  0
   11.4806   -4.5767   -3.6930 H   0  0  0  0  0  0  0  0  0  0  0  0
   13.5165   -3.5893   -2.6303 H   0  0  0  0  0  0  0  0  0  0  0  0
   13.5157   -2.2931   -3.8320 H   0  0  0  0  0  0  0  0  0  0  0  0
   13.7359   -3.9855   -5.6587 H   0  0  0  0  0  0  0  0  0  0  0  0
   13.7346   -5.2826   -4.4579 H   0  0  0  0  0  0  0  0  0  0  0  0
   15.7701   -4.2972   -3.3913 H   0  0  0  0  0  0  0  0  0  0  0  0
   15.7714   -3.0001   -4.5921 H   0  0  0  0  0  0  0  0  0  0  0  0
   15.9894   -4.6933   -6.4197 H   0  0  0  0  0  0  0  0  0  0  0  0
   15.9901   -5.9895   -5.2179 H   0  0  0  0  0  0  0  0  0  0  0  0
   18.0254   -5.0002   -4.1533 H   0  0  0  0  0  0  0  0  0  0  0  0
   18.0250   -3.7056   -5.3568 H   0  0  0  0  0  0  0  0  0  0  0  0
   18.2450   -5.4005   -7.1811 H   0  0  0  0  0  0  0  0  0  0  0  0
   18.2433   -6.6960   -5.9785 H   0  0  0  0  0  0  0  0  0  0  0  0
   20.2790   -5.7108   -4.9132 H   0  0  0  0  0  0  0  0  0  0  0  0
   20.2803   -4.4137   -6.1141 H   0  0  0  0  0  0  0  0  0  0  0  0
   20.4982   -6.1069   -7.9416 H   0  0  0  0  0  0  0  0  0  0  0  0
   20.4990   -7.4032   -6.7400 H   0  0  0  0  0  0  0  0  0  0  0  0
   22.5347   -6.4166   -5.6760 H   0  0  0  0  0  0  0  0  0  0  0  0
   22.5334   -5.1187   -6.8760 H   0  0  0  0  0  0  0  0  0  0  0  0
   22.7513   -6.8103   -8.7049 H   0  0  0  0  0  0  0  0  0  0  0  0
   22.7547   -8.1074   -7.5041 H   0  0  0  0  0  0  0  0  0  0  0  0
   24.7904   -7.1193   -6.4416 H   0  0  0  0  0  0  0  0  0  0  0  0
   24.7865   -5.8206   -7.6406 H   0  0  0  0  0  0  0  0  0  0  0  0
   25.0044   -7.5108   -9.4710 H   0  0  0  0  0  0  0  0  0  0  0  0
   25.0104   -8.8087   -8.2710 H   0  0  0  0  0  0  0  0  0  0  0  0
   27.0458   -7.8178   -7.2094 H   0  0  0  0  0  0  0  0  0  0  0  0
   27.0399   -6.5199   -8.4094 H   0  0  0  0  0  0  0  0  0  0  0  0
   27.2598   -8.2093  -10.2388 H   0  0  0  0  0  0  0  0  0  0  0  0
   27.2638   -9.5080   -9.0398 H   0  0  0  0  0  0  0  0  0  0  0  0
   29.2992   -8.5197   -7.9759 H   0  0  0  0  0  0  0  0  0  0  0  0
   29.2953   -7.2209   -9.1749 H   0  0  0  0  0  0  0  0  0  0  0  0
   29.5143   -8.9102  -11.0053 H   0  0  0  0  0  0  0  0  0  0  0  0
   29.5181  -10.2089   -9.8063 H   0  0  0  0  0  0  0  0  0  0  0  0
   31.5536   -9.2206   -8.7423 H   0  0  0  0  0  0  0  0  0  0  0  0
   31.5497   -7.9218   -9.9413 H   0  0  0  0  0  0  0  0  0  0  0  0
   31.7697   -9.6101  -11.7718 H   0  0  0  0  0  0  0  0  0  0  0  0
   31.7715  -10.9097  -10.5737 H   0  0  0  0  0  0  0  0  0  0  0  0
   33.8069   -9.9239   -9.5074 H   0  0  0  0  0  0  0  0  0  0  0  0
   33.8052   -8.6243  -10.7055 H   0  0  0  0  0  0  0  0  0  0  0  0
   34.0242  -10.3124  -12.5369 H   0  0  0  0  0  0  0  0  0  0  0  0
   34.0259  -11.6120  -11.3388 H   0  0  0  0  0  0  0  0  0  0  0  0
   36.0613  -10.6263  -10.2724 H   0  0  0  0  0  0  0  0  0  0  0  0
   36.0597   -9.3267  -11.4706 H   0  0  0  0  0  0  0  0  0  0  0  0
   36.2796  -11.0139  -13.3020 H   0  0  0  0  0  0  0  0  0  0  0  0
   36.2792  -12.3143  -12.1048 H   0  0  0  0  0  0  0  0  0  0  0  0
   38.3145  -11.3298  -11.0357 H   0  0  0  0  0  0  0  0  0  0  0  0
   38.3153  -10.0309  -12.2347 H   0  0  0  0  0  0  0  0  0  0  0  0
   38.5332  -11.7215  -14.0647 H   0  0  0  0  0  0  0  0  0  0  0  0
   38.5345  -13.0195  -12.8648 H   0  0  0  0  0  0  0  0  0  0  0  0
   40.5701  -12.0340  -11.7999 H   0  0  0  0  0  0  0  0  0  0  0  0
   40.5685  -10.7344  -12.9980 H   0  0  0  0  0  0  0  0  0  0  0  0
   40.7884  -12.4215  -14.8295 H   0  0  0  0  0  0  0  0  0  0  0  0
   40.7881  -13.7220  -13.6323 H   0  0  0  0  0  0  0  0  0  0  0  0
   42.8237  -12.7402  -12.5640 H   0  0  0  0  0  0  0  0  0  0  0  0
   42.8237  -11.4381  -13.7594 H   0  0  0  0  0  0  0  0  0  0  0  0
   43.0427  -13.1225  -15.5942 H   0  0  0  0  0  0  0  0  0  0  0  0
   43.0426  -14.4247  -14.3988 H   0  0  0  0  0  0  0  0  0  0  0  0
   45.0781  -13.4426  -13.3291 H   0  0  0  0  0  0  0  0  0  0  0  0
   45.0781  -12.1405  -14.5244 H   0  0  0  0  0  0  0  0  0  0  0  0
   45.2971  -13.8249  -16.3593 H   0  0  0  0  0  0  0  0  0  0  0  0
   45.2971  -15.1270  -15.1639 H   0  0  0  0  0  0  0  0  0  0  0  0
   47.3325  -14.1450  -14.0942 H   0  0  0  0  0  0  0  0  0  0  0  0
   47.3325  -12.8429  -15.2895 H   0  0  0  0  0  0  0  0  0  0  0  0
   47.5515  -14.5273  -17.1244 H   0  0  0  0  0  0  0  0  0  0  0  0
   47.5515  -15.8294  -15.9290 H   0  0  0  0  0  0  0  0  0  0  0  0
   49.5869  -14.8474  -14.8593 H   0  0  0  0  0  0  0  0  0  0  0  0
   49.5869  -13.5452  -16.0546 H   0  0  0  0  0  0  0  0  0  0  0  0
   49.8059  -15.2297  -17.8895 H   0  0  0  0  0  0  0  0  0  0  0  0
   49.8059  -16.5318  -16.6941 H   0  0  0  0  0  0  0  0  0  0  0  0
   51.8413  -15.5497  -15.6243 H   0  0  0  0  0  0  0  0  0  0  0  0
   51.8414  -14.2476  -16.8197 H   0  0  0  0  0  0  0  0  0  0  0  0
   52.0614  -15.9311  -18.6546 H   0  0  0  0  0  0  0  0  0  0  0  0
   52.0592  -17.2340  -17.4601 H   0  0  0  0  0  0  0  0  0  0  0  0
   54.0945  -16.2532  -16.3877 H   0  0  0  0  0  0  0  0  0  0  0  0
   54.0970  -14.9519  -17.5839 H   0  0  0  0  0  0  0  0  0  0  0  0
   54.3149  -16.6388  -19.4173 H   0  0  0  0  0  0  0  0  0  0  0  0
   54.3144  -17.9392  -18.2201 H   0  0  0  0  0  0  0  0  0  0  0  0
   56.3499  -16.9561  -17.1514 H   0  0  0  0  0  0  0  0  0  0  0  0
   56.3503  -15.6556  -18.3486 H   0  0  0  0  0  0  0  0  0  0  0  0
   56.5683  -17.3436  -20.1810 H   0  0  0  0  0  0  0  0  0  0  0  0
   56.5699  -18.6432  -18.9829 H   0  0  0  0  0  0  0  0  0  0  0  0
   58.6052  -17.6561  -17.9162 H   0  0  0  0  0  0  0  0  0  0  0  0
   58.6039  -16.3582  -19.1161 H   0  0  0  0  0  0  0  0  0  0  0  0
   58.8239  -18.0479  -20.9452 H   0  0  0  0  0  0  0  0  0  0  0  0
   58.8231  -19.3467  -19.7462 H   0  0  0  0  0  0  0  0  0  0  0  0
   60.8585  -18.3624  -18.6785 H   0  0  0  0  0  0  0  0  0  0  0  0
   60.8594  -17.0636  -19.8775 H   0  0  0  0  0  0  0  0  0  0  0  0
   61.0773  -18.7542  -21.7075 H   0  0  0  0  0  0  0  0  0  0  0  0
   61.0785  -20.0521  -20.5076 H   0  0  0  0  0  0  0  0  0  0  0  0
   63.1140  -19.0653  -19.4423 H   0  0  0  0  0  0  0  0  0  0  0  0
   63.1127  -17.7674  -20.6422 H   0  0  0  0  0  0  0  0  0  0  0  0
   63.3317  -19.4581  -22.4712 H   0  0  0  0  0  0  0  0  0  0  0  0
   63.3329  -20.7560  -21.2713 H   0  0  0  0  0  0  0  0  0  0  0  0
   65.3684  -19.7691  -20.2060 H   0  0  0  0  0  0  0  0  0  0  0  0
   65.3671  -18.4712  -21.4059 H   0  0  0  0  0  0  0  0  0  0  0  0
   65.5861  -20.1619  -23.2349 H   0  0  0  0  0  0  0  0  0  0  0  0
   65.5873  -21.4598  -22.0350 H   0  0  0  0  0  0  0  0  0  0  0  0
   67.6228  -20.4730  -20.9697 H   0  0  0  0  0  0  0  0  0  0  0  0
   67.6215  -19.1751  -22.1696 H   0  0  0  0  0  0  0  0  0  0  0  0
   67.8405  -20.8658  -23.9987 H   0  0  0  0  0  0  0  0  0  0  0  0
   67.8418  -22.1637  -22.7988 H   0  0  0  0  0  0  0  0  0  0  0  0
   69.8772  -21.1769  -21.7335 H   0  0  0  0  0  0  0  0  0  0  0  0
   69.8759  -19.8789  -22.9334 H   0  0  0  0  0  0  0  0  0  0  0  0
   70.0949  -21.5696  -24.7624 H   0  0  0  0  0  0  0  0  0  0  0  0
   70.0962  -22.8676  -23.5625 H   0  0  0  0  0  0  0  0  0  0  0  0
   72.1316  -21.8807  -22.4972 H   0  0  0  0  0  0  0  0  0  0  0  0
   72.1304  -20.5828  -23.6971 H   0  0  0  0  0  0  0  0  0  0  0  0
   72.3504  -22.2725  -25.5262 H   0  0  0  0  0  0  0  0  0  0  0  0
   72.3495  -23.5713  -24.3272 H   0  0  0  0  0  0  0  0  0  0  0  0
   74.3849  -22.5870  -23.2595 H   0  0  0  0  0  0  0  0  0  0  0  0
   74.3858  -21.2882  -24.4585 H   0  0  0  0  0  0  0  0  0  0  0  0
   74.6048  -22.9779  -26.2886 H   0  0  0  0  0  0  0  0  0  0  0  0
   74.6039  -24.2766  -25.0896 H   0  0  0  0  0  0  0  0  0  0  0  0
   76.6393  -23.2924  -24.0219 H   0  0  0  0  0  0  0  0  0  0  0  0
   76.6402  -21.9936  -25.2208 H   0  0  0  0  0  0  0  0  0  0  0  0
   76.8592  -23.6832  -27.0509 H   0  0  0  0  0  0  0  0  0  0  0  0
   76.8583  -24.9820  -25.8519 H   0  0  0  0  0  0  0  0  0  0  0  0
   78.8938  -23.9977  -24.7842 H   0  0  0  0  0  0  0  0  0  0  0  0
   78.8946  -22.6989  -25.9832 H   0  0  0  0  0  0  0  0  0  0  0  0
   79.1125  -24.3895  -27.8133 H   0  0  0  0  0  0  0  0  0  0  0  0
   79.1137  -25.6875  -26.6133 H   0  0  0  0  0  0  0  0  0  0  0  0
   81.1492  -24.7006  -25.5480 H   0  0  0  0  0  0  0  0  0  0  0  0
   81.1479  -23.4027  -26.7479 H   0  0  0  0  0  0  0  0  0  0  0  0
   81.3674  -25.0934  -28.5769 H   0  0  0  0  0  0  0  0  0  0  0  0
   81.3687  -26.3913  -27.3771 H   0  0  0  0  0  0  0  0  0  0  0  0
   83.4048  -25.4056  -26.3118 H   0  0  0  0  0  0  0  0  0  0  0  0
   83.4031  -24.1060  -27.5100 H   0  0  0  0  0  0  0  0  0  0  0  0
   83.6221  -25.7956  -29.3411 H   0  0  0  0  0  0  0  0  0  0  0  0
   83.6259  -27.0935  -28.1428 H   0  0  0  0  0  0  0  0  0  0  0  0
   85.6727  -26.1119  -27.0848 H   0  0  0  0  0  0  0  0  0  0  0  0
   85.6688  -24.8126  -28.2843 H   0  0  0  0  0  0  0  0  0  0  0  0
   85.9083  -27.8012  -28.9102 H   0  0  0  0  0  0  0  0  0  0  0  0
   87.2340  -26.6193  -28.9428 H   0  0  0  0  0  0  0  0  0  0  0  0
   85.9044  -26.4968  -30.1144 H   0  0  0  0  0  0  0  0  0  0  0  0
  1  2  2  0  0  0  0
  2  3  1  0  0  0  0
  2  4  1  0  0  0  0
  3 79  1  0  0  0  0
  3 80  1  0  0  0  0
  3 81  1  0  0  0  0
  4  5  1  0  0  0  0
  4 82  1  0  0  0  0
  4 83  1  0  0  0  0
  5  6  1  0  0  0  0
  6  7  1  0  0  0  0
  6 84  1  0  0  0  0
  6 85  1  0  0  0  0
  7  8  1  0  0  0  0
  8  9  1  0  0  0  0
  8 86  1  0  0  0  0
  8 87  1  0  0  0  0
  9 10  1  0  0  0  0
  9 88  1  0  0  0  0
  9 89  1  0  0  0  0
 10 11  1  0  0  0  0
 10 90  1  0  0  0  0
 10 91  1  0  0  0  0
 11 12  1  0  0  0  0
 11 92  1  0  0  0  0
 11 93  1  0  0  0  0
 12 13  1  0  0  0  0
 12 94  1  0  0  0  0
 12 95  1  0  0  0  0
 13 14  1  0  0  0  0
 13 96  1  0  0  0  0
 13 97  1  0  0  0  0
 14 15  1  0  0  0  0
 14 98  1  0  0  0  0
 14 99  1  0  0  0  0
 15 16  1  0  0  0  0
 15100  1  0  0  0  0
 15101  1  0  0  0  0
 16 17  1  0  0  0  0
 16102  1  0  0  0  0
 16103  1  0  0  0  0
 17 18  1  0  0  0  0
 17104  1  0  0  0  0
 17105  1  0  0  0  0
 18 19  1  0  0  0  0
 18106  1  0  0  0  0
 18107  1  0  0  0  0
 19 20  1  0  0  0  0
 19108  1  0  0  0  0
 19109  1  0  0  0  0
 20 21  1  0  0  0  0
 20110  1  0  0  0  0
 20111  1  0  0  0  0
 21 22  1  0  0  0  0
 21112  1  0  0  0  0
 21113  1  0  0  0  0
 22 23  1  0  0  0  0
 22114  1  0  0  0  0
 22115  1  0  0  0  0
 23 24  1  0  0  0  0
 23116  1  0  0  0  0
 23117  1  0  0  0  0
 24 25  1  0  0  0  0
 24118  1  0  0  0  0
 24119  1  0  0  0  0
 25 26  1  0  0  0  0
 25120  1  0  0  0  0
 25121  1  0  0  0  0
 26 27  1  0  0  0  0
 26122  1  0  0  0  0
 26123  1  0  0  0  0
 27 28  1  0  0  0  0
 27124  1  0  0  0  0
 27125  1  0  0  0  0
 28 29  1  0  0  0  0
 28126  1  0  0  0  0
 28127  1  0  0  0  0
 29 30  1  0  0  0  0
 29128  1  0  0  0  0
 29129  1  0  0  0  0
 30 31  1  0  0  0  0
 30130  1  0  0  0  0
 30131  1  0  0  0  0
 31 32  1  0  0  0  0
 31132  1  0  0  0  0
 31133  1  0  0  0  0
 32 33  1  0  0  0  0
 32134  1  0  0  0  0
 32135  1  0  0  0  0
 33 34  1  0  0  0  0
 33136  1  0  0  0  0
 33137  1  0  0  0  0
 34 35  1  0  0  0  0
 34138  1  0  0  0  0
 34139  1  0  0  0  0
 35 36  1  0  0  0  0
 35140  1  0  0  0  0
 35141  1  0  0  0  0
 36 37  1  0  0  0  0
 36142  1  0  0  0  0
 36143  1  0  0  0  0
 37 38  1  0  0  0  0
 37144  1  0  0  0  0
 37145  1  0  0  0  0
 38 39  1  0  0  0  0
 38146  1  0  0  0  0
 38147  1  0  0  0  0
 39 40  1  0  0  0  0
 39148  1  0  0  0  0
 39149  1  0  0  0  0
 40 41  1  0  0  0  0
 40150  1  0  0  0  0
 40151  1  0  0  0  0
 41 42  1  0  0  0  0
 41152  1  0  0  0  0
 41153  1  0  0  0  0
 42 43  1  0  0  0  0
 42154  1  0  0  0  0
 42155  1  0  0  0  0
 43 44  1  0  0  0  0
 43156  1  0  0  0  0
 43157  1  0  0  0  0
 44 45  1  0  0  0  0
 44158  1  0  0  0  0
 44159  1  0  0  0  0
 45 46  1  0  0  0  0
 45160  1  0  0  0  0
 45161  1  0  0  0  0
 46 47  1  0  0  0  0
 46162  1  0  0  0  0
 46163  1  0  0  0  0
 47 48  1  0  0  0  0
 47164  1  0  0  0  0
 47165  1  0  0  0  0
 48 49  1  0  0  0  0
 48166  1  0  0  0  0
 48167  1  0  0  0  0
 49 50  1  0  0  0  0
 49168  1  0  0  0  0
 49169  1  0  0  0  0
 50 51  1  0  0  0  0
 50170  1  0  0  0  0
 50171  1  0  0  0  0
 51 52  1  0  0  0  0
 51172  1  0  0  0  0
 51173  1  0  0  0  0
 52 53  1  0  0  0  0
 52174  1  0  0  0  0
 52175  1  0  0  0  0
 53 54  1  0  0  0  0
 53176  1  0  0  0  0
 53177  1  0  0  0  0
 54 55  1  0  0  0  0
 54178  1  0  0  0  0
 54179  1  0  0  0  0
 55 56  1  0  0  0  0
 55180  1  0  0  0  0
 55181  1  0  0  0  0
 56 57  1  0  0  0  0
 56182  1  0  0  0  0
 56183  1  0  0  0  0
 57 58  1  0  0  0  0
 57184  1  0  0  0  0
 57185  1  0  0  0  0
 58 59  1  0  0  0  0
 58186  1  0  0  0  0
 58187  1  0  0  0  0
 59 60  1  0  0  0  0
 59188  1  0  0  0  0
 59189  1  0  0  0  0
 60 61  1  0  0  0  0
 60190  1  0  0  0  0
 60191  1  0  0  0  0
 61 62  1  0  0  0  0
 61192  1  0  0  0  0
 61193  1  0  0  0  0
 62 63  1  0  0  0  0
 62194  1  0  0  0  0
 62195  1  0  0  0  0
 63 64  1  0  0  0  0
 63196  1  0  0  0  0
 63197  1  0  0  0  0
 64 65  1  0  0  0  0
 64198  1  0  0  0  0
 64199  1  0  0  0  0
 65 66  1  0  0  0  0
 65200  1  0  0  0  0
 65201  1  0  0  0  0
 66 67  1  0  0  0  0
 66202  1  0  0  0  0
 66203  1  0  0  0  0
 67 68  1  0  0  0  0
 67204  1  0  0  0  0
 67205  1  0  0  0  0
 68 69  1  0  0  0  0
 68206  1  0  0  0  0
 68207  1  0  0  0  0
 69 70  1  0  0  0  0
 69208  1  0  0  0  0
 69209  1  0  0  0  0
 70 71  1  0  0  0  0
 70210  1  0  0  0  0
 70211  1  0  0  0  0
 71 72  1  0  0  0  0
 71212  1  0  0  0  0
 71213  1  0  0  0  0
 72 73  1  0  0  0  0
 72214  1  0  0  0  0
 72215  1  0  0  0  0
 73 74  1  0  0  0  0
 73216  1  0  0  0  0
 73217  1  0  0  0  0
 74 75  1  0  0  0  0
 74218  1  0  0  0  0
 74219  1  0  0  0  0
 75 76  1  0  0  0  0
 75220  1  0  0  0  0
 75221  1  0  0  0  0
 76 77  1  0  0  0  0
 76222  1  0  0  0  0
 76223  1  0  0  0  0
 77 78  1  0  0  0  0
 77224  1  0  0  0  0
 77225  1  0  0  0  0
 78226  1  0  0  0  0
 78227  1  0  0  0  0
 78228  1  0  0  0  0
M  END
$$$$
