
 OpenBabel04232216473D

 86 86  0  0  0  0  0  0  0  0999 V2000
   14.5828   -5.8130   -5.0609 C   0  0  0  0  0  0  0  0  0  0  0  0
   16.6648   -7.1345   -6.0840 C   0  0  0  0  0  0  0  0  0  0  0  0
   14.0501   -6.2175   -5.2570 C   0  0  0  0  0  0  0  0  0  0  0  0
   11.7029   -5.4508   -4.5795 C   0  0  0  0  0  0  0  0  0  0  0  0
    9.1198   -4.4346   -3.7725 C   0  0  0  0  0  0  0  0  0  0  0  0
    6.5767   -3.5586   -3.2499 C   0  0  0  0  0  0  0  0  0  0  0  0
    7.5271   -3.1649   -3.3614 C   0  0  0  0  0  0  0  0  0  0  0  0
    8.2268   -2.6157   -4.2210 C   0  0  0  0  0  0  0  0  0  0  0  0
    9.3161   -2.2358   -3.5299 C   0  0  0  0  0  0  0  0  0  0  0  0
   10.2412   -3.0459   -4.8199 C   0  0  0  0  0  0  0  0  0  0  0  0
   11.7806   -2.6677   -4.3146 C   0  0  0  0  0  0  0  0  0  0  0  0
   13.1927   -3.3634   -5.4294 C   0  0  0  0  0  0  0  0  0  0  0  0
   14.6526   -3.9824   -5.7641 C   0  0  0  0  0  0  0  0  0  0  0  0
   14.2602   -5.3944   -6.9955 C   0  0  0  0  0  0  0  0  0  0  0  0
   15.5004   -5.5785   -7.4148 C   0  0  0  0  0  0  0  0  0  0  0  0
   16.3904   -6.5556   -7.9888 C   0  0  0  0  0  0  0  0  0  0  0  0
   17.1312   -7.3296   -8.7011 C   0  0  0  0  0  0  0  0  0  0  0  0
   18.3372   -7.9413   -9.3996 C   0  0  0  0  0  0  0  0  0  0  0  0
   19.4839   -6.9486   -8.8254 C   0  0  0  0  0  0  0  0  0  0  0  0
   20.3608   -7.8991   -9.0588 C   0  0  0  0  0  0  0  0  0  0  0  0
   21.5089   -7.3412   -9.1152 C   0  0  0  0  0  0  0  0  0  0  0  0
   22.1120   -8.0444  -10.3343 C   0  0  0  0  0  0  0  0  0  0  0  0
   23.3415   -7.3991  -10.2250 C   0  0  0  0  0  0  0  0  0  0  0  0
   24.2251   -8.3600  -11.2213 C   0  0  0  0  0  0  0  0  0  0  0  0
   24.0773   -9.6167  -11.1559 C   0  0  0  0  0  0  0  0  0  0  0  0
   25.6097  -10.1555  -12.0801 C   0  0  0  0  0  0  0  0  0  0  0  0
   27.1630   -9.9980  -12.3737 C   0  0  0  0  0  0  0  0  0  0  0  0
   27.8212  -11.1308  -13.2302 C   0  0  0  0  0  0  0  0  0  0  0  0
   29.1234  -10.9119  -13.4473 C   0  0  0  0  0  0  0  0  0  0  0  0
   29.8803  -11.8849  -14.2726 C   0  0  0  0  0  0  0  0  0  0  0  0
   31.0520  -11.0541  -13.9219 C   0  0  0  0  0  0  0  0  0  0  0  0
   32.2969  -11.8234  -14.8129 C   0  0  0  0  0  0  0  0  0  0  0  0
   33.7286  -11.5639  -14.0190 C   0  0  0  0  0  0  0  0  0  0  0  0
   34.0253  -12.5027  -15.6079 C   0  0  0  0  0  0  0  0  0  0  0  0
   35.2413  -12.4919  -14.8912 C   0  0  0  0  0  0  0  0  0  0  0  0
   33.4345  -13.5518  -14.2937 C   0  0  0  0  0  0  0  0  0  0  0  0
   31.5302  -12.7613  -13.1091 C   0  0  0  0  0  0  0  0  0  0  0  0
   29.0531  -12.1036  -11.8702 C   0  0  0  0  0  0  0  0  0  0  0  0
   26.8712  -11.1609  -10.7366 C   0  0  0  0  0  0  0  0  0  0  0  0
   24.2336  -10.1705   -9.4628 C   0  0  0  0  0  0  0  0  0  0  0  0
   21.9055   -9.1662   -8.3360 C   0  0  0  0  0  0  0  0  0  0  0  0
   19.1952   -8.0586   -7.1546 C   0  0  0  0  0  0  0  0  0  0  0  0
   13.0502   -4.7567   -4.5183 H   0  0  0  0  0  0  0  0  0  0  0  0
   12.9961   -4.7701   -4.7072 H   0  0  0  0  0  0  0  0  0  0  0  0
   13.1497   -4.8512   -4.1733 H   0  0  0  0  0  0  0  0  0  0  0  0
   12.1983   -5.9060   -4.6468 H   0  0  0  0  0  0  0  0  0  0  0  0
   10.0991   -4.6108   -3.6501 H   0  0  0  0  0  0  0  0  0  0  0  0
    4.8109   -2.7754   -2.9217 H   0  0  0  0  0  0  0  0  0  0  0  0
    4.9415   -3.7157   -2.7273 H   0  0  0  0  0  0  0  0  0  0  0  0
    5.1919   -2.4211   -3.8486 H   0  0  0  0  0  0  0  0  0  0  0  0
    7.4338   -1.8480   -2.6278 H   0  0  0  0  0  0  0  0  0  0  0  0
    7.1700   -2.9017   -4.2747 H   0  0  0  0  0  0  0  0  0  0  0  0
    9.1964   -1.9743   -2.2982 H   0  0  0  0  0  0  0  0  0  0  0  0
    9.1083   -4.0361   -5.1851 H   0  0  0  0  0  0  0  0  0  0  0  0
   12.0799   -2.3329   -2.9039 H   0  0  0  0  0  0  0  0  0  0  0  0
   12.1425   -4.3740   -5.8605 H   0  0  0  0  0  0  0  0  0  0  0  0
   14.7115   -3.8971   -4.5612 H   0  0  0  0  0  0  0  0  0  0  0  0
   13.1727   -5.7503   -6.7746 H   0  0  0  0  0  0  0  0  0  0  0  0
   16.3574   -5.1384   -6.4563 H   0  0  0  0  0  0  0  0  0  0  0  0
   15.4137   -6.8431   -7.7720 H   0  0  0  0  0  0  0  0  0  0  0  0
   17.6293   -6.3825   -7.6866 H   0  0  0  0  0  0  0  0  0  0  0  0
   17.9961   -7.6350   -8.5684 H   0  0  0  0  0  0  0  0  0  0  0  0
   19.9614   -6.3266   -7.5425 H   0  0  0  0  0  0  0  0  0  0  0  0
   19.9375   -8.5173   -9.7355 H   0  0  0  0  0  0  0  0  0  0  0  0
   22.0626   -7.0681   -8.1857 H   0  0  0  0  0  0  0  0  0  0  0  0
   21.7674   -9.2120  -10.6022 H   0  0  0  0  0  0  0  0  0  0  0  0
   23.9293   -7.6156   -9.0857 H   0  0  0  0  0  0  0  0  0  0  0  0
   23.8824   -9.7609  -11.6594 H   0  0  0  0  0  0  0  0  0  0  0  0
   24.6985   -8.6417  -10.1524 H   0  0  0  0  0  0  0  0  0  0  0  0
   25.8024  -11.0822  -12.6003 H   0  0  0  0  0  0  0  0  0  0  0  0
   28.1918   -9.6297  -11.3980 H   0  0  0  0  0  0  0  0  0  0  0  0
   27.8051  -12.0687  -13.7292 H   0  0  0  0  0  0  0  0  0  0  0  0
   29.8464  -10.3828  -12.2862 H   0  0  0  0  0  0  0  0  0  0  0  0
   30.2674  -12.8676  -14.6459 H   0  0  0  0  0  0  0  0  0  0  0  0
   31.9651  -11.1600  -13.0616 H   0  0  0  0  0  0  0  0  0  0  0  0
   32.1270  -13.2393  -15.3788 H   0  0  0  0  0  0  0  0  0  0  0  0
   35.1117  -11.6349  -13.3767 H   0  0  0  0  0  0  0  0  0  0  0  0
   33.9730  -13.8305  -16.3546 H   0  0  0  0  0  0  0  0  0  0  0  0
   36.6571  -12.7546  -14.6500 H   0  0  0  0  0  0  0  0  0  0  0  0
   35.0086  -14.0637  -15.5286 H   0  0  0  0  0  0  0  0  0  0  0  0
   33.3710  -13.3881  -13.7864 H   0  0  0  0  0  0  0  0  0  0  0  0
   30.7589  -12.6372  -12.7748 H   0  0  0  0  0  0  0  0  0  0  0  0
   28.6186  -11.4837  -11.4412 H   0  0  0  0  0  0  0  0  0  0  0  0
   25.9103  -10.3195  -10.1510 H   0  0  0  0  0  0  0  0  0  0  0  0
   23.4679   -9.1657   -8.9278 H   0  0  0  0  0  0  0  0  0  0  0  0
   18.5730   -6.5718   -6.5254 H   0  0  0  0  0  0  0  0  0  0  0  0
  1  2  1  0  0  0  0
  1 43  1  0  0  0  0
  1 44  1  0  0  0  0
  1 45  1  0  0  0  0
  2  3  1  0  0  0  0
  2 42  2  3  0  0  0
  3  4  2  3  0  0  0
  3 46  1  0  0  0  0
  4  5  1  0  0  0  0
  4 47  1  0  0  0  0
  5  6  1  0  0  0  0
  5  7  2  3  0  0  0
  6 48  1  0  0  0  0
  6 49  1  0  0  0  0
  6 50  1  0  0  0  0
  7  8  1  0  0  0  0
  7 51  1  0  0  0  0
  8  9  2  3  0  0  0
  8 52  1  0  0  0  0
  9 10  1  0  0  0  0
  9 53  1  0  0  0  0
 10 11  2  3  0  0  0
 10 54  1  0  0  0  0
 11 12  1  0  0  0  0
 11 55  1  0  0  0  0
 12 13  2  3  0  0  0
 12 56  1  0  0  0  0
 13 14  1  0  0  0  0
 13 57  1  0  0  0  0
 14 15  2  3  0  0  0
 14 58  1  0  0  0  0
 15 16  1  0  0  0  0
 15 59  1  0  0  0  0
 16 17  2  3  0  0  0
 16 60  1  0  0  0  0
 17 18  1  0  0  0  0
 17 61  1  0  0  0  0
 18 19  2  3  0  0  0
 18 62  1  0  0  0  0
 19 20  1  0  0  0  0
 19 63  1  0  0  0  0
 20 21  2  3  0  0  0
 20 64  1  0  0  0  0
 21 22  1  0  0  0  0
 21 65  1  0  0  0  0
 22 23  2  3  0  0  0
 22 66  1  0  0  0  0
 23 24  1  0  0  0  0
 23 67  1  0  0  0  0
 24 25  2  3  0  0  0
 24 68  1  0  0  0  0
 25 26  1  0  0  0  0
 25 69  1  0  0  0  0
 26 27  2  3  0  0  0
 26 70  1  0  0  0  0
 27 28  1  0  0  0  0
 27 71  1  0  0  0  0
 28 29  2  3  0  0  0
 28 72  1  0  0  0  0
 29 30  1  0  0  0  0
 29 73  1  0  0  0  0
 30 31  2  3  0  0  0
 30 74  1  0  0  0  0
 31 32  1  0  0  0  0
 31 75  1  0  0  0  0
 32 33  2  3  0  0  0
 32 76  1  0  0  0  0
 33 34  1  0  0  0  0
 33 77  1  0  0  0  0
 34 35  2  3  0  0  0
 34 78  1  0  0  0  0
 35 36  1  0  0  0  0
 35 79  1  0  0  0  0
 36 37  2  3  0  0  0
 36 80  1  0  0  0  0
 37 38  1  0  0  0  0
 37 81  1  0  0  0  0
 38 39  2  3  0  0  0
 38 82  1  0  0  0  0
 39 40  1  0  0  0  0
 39 83  1  0  0  0  0
 40 41  2  3  0  0  0
 40 84  1  0  0  0  0
 41 42  1  0  0  0  0
 41 85  1  0  0  0  0
 42 86  1  0  0  0  0
M  END
$$$$
