
 OpenBabel04232217023D

 89 88  0  0  0  0  0  0  0  0999 V2000
    8.5934    8.8026    5.8075 O   0  0  0  0  0  0  0  0  0  0  0  0
   10.0252    8.5736    5.7667 O   0  0  0  0  0  0  0  0  0  0  0  0
   10.3199    7.0679    5.1078 S   0  0  0  0  0  0  0  0  0  0  0  0
    9.6774    7.3487    3.4098 C   0  0  0  0  0  0  0  0  0  0  0  0
   10.4070    8.4951    2.7074 C   0  0  0  0  0  0  0  0  0  0  0  0
   11.8449    8.2657    2.5242 N   0  0  0  0  0  0  0  0  0  0  0  0
   12.4408    6.9940    1.6334 S   0  0  0  0  0  0  0  0  0  0  0  0
   11.8649    7.0238    0.0496 N   0  0  0  0  0  0  0  0  0  0  0  0
   12.5123    5.6978   -0.7440 S   0  0  0  0  0  0  0  0  0  0  0  0
   11.7989    5.8418   -2.6761 S   0  0  0  0  0  0  0  0  0  0  0  0
   12.5176    7.5772   -3.5473 S   0  0  0  0  0  0  0  0  0  0  0  0
   14.5963    7.5547   -3.6068 S   0  0  0  0  0  0  0  0  0  0  0  0
   15.2721    9.3656   -4.4554 S   0  0  0  0  0  0  0  0  0  0  0  0
   17.3850    9.3593   -4.4527 S   0  0  0  0  0  0  0  0  0  0  0  0
   18.0776   11.1575   -5.3167 S   0  0  0  0  0  0  0  0  0  0  0  0
   20.1885   11.1458   -5.3110 S   0  0  0  0  0  0  0  0  0  0  0  0
   20.8786   12.9444   -6.1749 S   0  0  0  0  0  0  0  0  0  0  0  0
   22.9894   12.9338   -6.1699 S   0  0  0  0  0  0  0  0  0  0  0  0
   23.6808   14.7314   -7.0332 S   0  0  0  0  0  0  0  0  0  0  0  0
   25.7907   14.7170   -7.0263 S   0  0  0  0  0  0  0  0  0  0  0  0
   26.4823   16.5134   -7.8891 S   0  0  0  0  0  0  0  0  0  0  0  0
   28.5916   16.5015   -7.8834 S   0  0  0  0  0  0  0  0  0  0  0  0
   29.2823   18.2982   -8.7464 S   0  0  0  0  0  0  0  0  0  0  0  0
   31.3915   18.2863   -8.7407 S   0  0  0  0  0  0  0  0  0  0  0  0
   32.0822   20.0829   -9.6036 S   0  0  0  0  0  0  0  0  0  0  0  0
   34.1915   20.0710   -9.5979 S   0  0  0  0  0  0  0  0  0  0  0  0
   34.8822   21.8676  -10.4608 S   0  0  0  0  0  0  0  0  0  0  0  0
   36.9915   21.8557  -10.4551 S   0  0  0  0  0  0  0  0  0  0  0  0
   37.6822   23.6523  -11.3180 S   0  0  0  0  0  0  0  0  0  0  0  0
   39.7915   23.6404  -11.3123 S   0  0  0  0  0  0  0  0  0  0  0  0
   40.4821   25.4371  -12.1753 S   0  0  0  0  0  0  0  0  0  0  0  0
   42.5915   25.4251  -12.1695 S   0  0  0  0  0  0  0  0  0  0  0  0
   43.2821   27.2218  -13.0325 S   0  0  0  0  0  0  0  0  0  0  0  0
   45.3915   27.2098  -13.0267 S   0  0  0  0  0  0  0  0  0  0  0  0
   46.0821   29.0065  -13.8897 S   0  0  0  0  0  0  0  0  0  0  0  0
   48.1915   28.9945  -13.8839 S   0  0  0  0  0  0  0  0  0  0  0  0
   48.8821   30.7912  -14.7469 S   0  0  0  0  0  0  0  0  0  0  0  0
   50.9915   30.7792  -14.7412 S   0  0  0  0  0  0  0  0  0  0  0  0
   51.6821   32.5759  -15.6041 S   0  0  0  0  0  0  0  0  0  0  0  0
   53.7915   32.5640  -15.5984 S   0  0  0  0  0  0  0  0  0  0  0  0
   54.4821   34.3606  -16.4613 S   0  0  0  0  0  0  0  0  0  0  0  0
   56.5915   34.3487  -16.4556 S   0  0  0  0  0  0  0  0  0  0  0  0
   57.2821   36.1453  -17.3185 S   0  0  0  0  0  0  0  0  0  0  0  0
   59.3915   36.1334  -17.3128 S   0  0  0  0  0  0  0  0  0  0  0  0
   60.0821   37.9300  -18.1758 S   0  0  0  0  0  0  0  0  0  0  0  0
   62.1915   37.9181  -18.1700 S   0  0  0  0  0  0  0  0  0  0  0  0
   62.8821   39.7148  -19.0330 S   0  0  0  0  0  0  0  0  0  0  0  0
   64.9915   39.7028  -19.0272 S   0  0  0  0  0  0  0  0  0  0  0  0
   65.6821   41.4995  -19.8902 S   0  0  0  0  0  0  0  0  0  0  0  0
   67.7914   41.4875  -19.8844 S   0  0  0  0  0  0  0  0  0  0  0  0
   68.4821   43.2842  -20.7474 S   0  0  0  0  0  0  0  0  0  0  0  0
   70.5914   43.2722  -20.7417 S   0  0  0  0  0  0  0  0  0  0  0  0
   71.2821   45.0689  -21.6046 S   0  0  0  0  0  0  0  0  0  0  0  0
   73.3914   45.0569  -21.5989 S   0  0  0  0  0  0  0  0  0  0  0  0
   74.0821   46.8536  -22.4618 S   0  0  0  0  0  0  0  0  0  0  0  0
   76.1914   46.8417  -22.4561 S   0  0  0  0  0  0  0  0  0  0  0  0
   76.8820   48.6383  -23.3190 S   0  0  0  0  0  0  0  0  0  0  0  0
   78.9914   48.6264  -23.3133 S   0  0  0  0  0  0  0  0  0  0  0  0
   79.6820   50.4230  -24.1762 S   0  0  0  0  0  0  0  0  0  0  0  0
   81.7914   50.4111  -24.1705 S   0  0  0  0  0  0  0  0  0  0  0  0
   82.4820   52.2077  -25.0335 S   0  0  0  0  0  0  0  0  0  0  0  0
   84.5914   52.1958  -25.0277 S   0  0  0  0  0  0  0  0  0  0  0  0
   85.2820   53.9924  -25.8907 S   0  0  0  0  0  0  0  0  0  0  0  0
   87.3914   53.9805  -25.8849 S   0  0  0  0  0  0  0  0  0  0  0  0
   88.0820   55.7772  -26.7479 S   0  0  0  0  0  0  0  0  0  0  0  0
   90.1914   55.7652  -26.7421 S   0  0  0  0  0  0  0  0  0  0  0  0
   90.8820   57.5619  -27.6051 S   0  0  0  0  0  0  0  0  0  0  0  0
   92.9914   57.5499  -27.5994 S   0  0  0  0  0  0  0  0  0  0  0  0
   93.6820   59.3466  -28.4623 S   0  0  0  0  0  0  0  0  0  0  0  0
   95.7914   59.3346  -28.4566 S   0  0  0  0  0  0  0  0  0  0  0  0
   96.4820   61.1313  -29.3195 S   0  0  0  0  0  0  0  0  0  0  0  0
   98.5914   61.1195  -29.3138 S   0  0  0  0  0  0  0  0  0  0  0  0
   99.2814   62.9163  -30.1769 S   0  0  0  0  0  0  0  0  0  0  0  0
  101.3906   62.9043  -30.1711 S   0  0  0  0  0  0  0  0  0  0  0  0
  102.0806   64.7006  -31.0338 S   0  0  0  0  0  0  0  0  0  0  0  0
  104.1877   64.6864  -31.0274 S   0  0  0  0  0  0  0  0  0  0  0  0
  104.8744   66.4795  -31.8884 S   0  0  0  0  0  0  0  0  0  0  0  0
  106.9700   66.4611  -31.8587 S   0  0  0  0  0  0  0  0  0  0  0  0
  107.6535   68.2076  -32.7648 S   0  0  0  0  0  0  0  0  0  0  0  0
  109.7347   68.1881  -32.7050 S   0  0  0  0  0  0  0  0  0  0  0  0
  110.3420   66.6025  -33.8678 S   0  0  0  0  0  0  0  0  0  0  0  0
    8.6621    9.7154    6.2527 H   0  0  0  0  0  0  0  0  0  0  0  0
    8.6052    7.5623    3.4561 H   0  0  0  0  0  0  0  0  0  0  0  0
    9.7770    6.4244    2.8328 H   0  0  0  0  0  0  0  0  0  0  0  0
   10.2334    9.4230    3.2697 H   0  0  0  0  0  0  0  0  0  0  0  0
    9.9576    8.6599    1.7204 H   0  0  0  0  0  0  0  0  0  0  0  0
   12.2769    8.3032    3.4544 H   0  0  0  0  0  0  0  0  0  0  0  0
   12.2127    7.8692   -0.4031 H   0  0  0  0  0  0  0  0  0  0  0  0
  111.6864   66.6608  -33.7901 H   0  0  0  0  0  0  0  0  0  0  0  0
  1  2  1  0  0  0  0
  1 82  1  0  0  0  0
  2  3  1  0  0  0  0
  3  4  1  0  0  0  0
  4  5  1  0  0  0  0
  4 83  1  0  0  0  0
  4 84  1  0  0  0  0
  5  6  1  0  0  0  0
  5 85  1  0  0  0  0
  5 86  1  0  0  0  0
  6  7  1  0  0  0  0
  6 87  1  0  0  0  0
  7  8  1  0  0  0  0
  8  9  1  0  0  0  0
  8 88  1  0  0  0  0
  9 10  1  0  0  0  0
 10 11  1  0  0  0  0
 11 12  1  0  0  0  0
 12 13  1  0  0  0  0
 13 14  1  0  0  0  0
 14 15  1  0  0  0  0
 15 16  1  0  0  0  0
 16 17  1  0  0  0  0
 17 18  1  0  0  0  0
 18 19  1  0  0  0  0
 19 20  1  0  0  0  0
 20 21  1  0  0  0  0
 21 22  1  0  0  0  0
 22 23  1  0  0  0  0
 23 24  1  0  0  0  0
 24 25  1  0  0  0  0
 25 26  1  0  0  0  0
 26 27  1  0  0  0  0
 27 28  1  0  0  0  0
 28 29  1  0  0  0  0
 29 30  1  0  0  0  0
 30 31  1  0  0  0  0
 31 32  1  0  0  0  0
 32 33  1  0  0  0  0
 33 34  1  0  0  0  0
 34 35  1  0  0  0  0
 35 36  1  0  0  0  0
 36 37  1  0  0  0  0
 37 38  1  0  0  0  0
 38 39  1  0  0  0  0
 39 40  1  0  0  0  0
 40 41  1  0  0  0  0
 41 42  1  0  0  0  0
 42 43  1  0  0  0  0
 43 44  1  0  0  0  0
 44 45  1  0  0  0  0
 45 46  1  0  0  0  0
 46 47  1  0  0  0  0
 47 48  1  0  0  0  0
 48 49  1  0  0  0  0
 49 50  1  0  0  0  0
 50 51  1  0  0  0  0
 51 52  1  0  0  0  0
 52 53  1  0  0  0  0
 53 54  1  0  0  0  0
 54 55  1  0  0  0  0
 55 56  1  0  0  0  0
 56 57  1  0  0  0  0
 57 58  1  0  0  0  0
 58 59  1  0  0  0  0
 59 60  1  0  0  0  0
 60 61  1  0  0  0  0
 61 62  1  0  0  0  0
 62 63  1  0  0  0  0
 63 64  1  0  0  0  0
 64 65  1  0  0  0  0
 65 66  1  0  0  0  0
 66 67  1  0  0  0  0
 67 68  1  0  0  0  0
 68 69  1  0  0  0  0
 69 70  1  0  0  0  0
 70 71  1  0  0  0  0
 71 72  1  0  0  0  0
 72 73  1  0  0  0  0
 73 74  1  0  0  0  0
 74 75  1  0  0  0  0
 75 76  1  0  0  0  0
 76 77  1  0  0  0  0
 77 78  1  0  0  0  0
 78 79  1  0  0  0  0
 79 80  1  0  0  0  0
 80 81  1  0  0  0  0
 81 89  1  0  0  0  0
M  END
$$$$
