
 OpenBabel04232217023D

165164  0  0  0  0  0  0  0  0999 V2000
   25.4023   16.3760   22.9957 O   0  0  0  0  0  0  0  0  0  0  0  0
   25.0538   17.0510   21.7575 O   0  0  0  0  0  0  0  0  0  0  0  0
   23.6427   17.2458   21.8247 C   0  0  0  0  0  0  0  0  0  0  0  0
   23.1728   17.9499   20.5636 C   0  0  0  0  0  0  0  0  0  0  0  0
   23.5002   17.1127   19.3356 C   0  0  0  0  0  0  0  0  0  0  0  0
   23.0291   17.8090   18.1511 N   0  0  0  0  0  0  0  0  0  0  0  0
   23.3377   17.0161   17.0087 N   0  0  0  0  0  0  0  0  0  0  0  0
   22.9070   17.6848   15.8329 N   0  0  0  0  0  0  0  0  0  0  0  0
   23.5615   18.9483   15.7022 N   0  0  0  0  0  0  0  0  0  0  0  0
   24.9787   18.7594   15.6515 N   0  0  0  0  0  0  0  0  0  0  0  0
   25.2958   17.9424   14.5195 N   0  0  0  0  0  0  0  0  0  0  0  0
   24.8286   18.5958   13.3466 N   0  0  0  0  0  0  0  0  0  0  0  0
   25.4712   19.8618   13.2125 N   0  0  0  0  0  0  0  0  0  0  0  0
   26.8871   19.7037   13.1458 N   0  0  0  0  0  0  0  0  0  0  0  0
   27.2547   18.8882   12.0249 N   0  0  0  0  0  0  0  0  0  0  0  0
   26.7784   19.5158   10.8278 N   0  0  0  0  0  0  0  0  0  0  0  0
   27.4086   20.8200   10.6927 N   0  0  0  0  0  0  0  0  0  0  0  0
   28.8476   20.6773   10.6549 N   0  0  0  0  0  0  0  0  0  0  0  0
   29.2285   19.8544    9.5418 N   0  0  0  0  0  0  0  0  0  0  0  0
   28.7660   20.4500    8.3319 N   0  0  0  0  0  0  0  0  0  0  0  0
   29.3422   21.7445    8.2093 N   0  0  0  0  0  0  0  0  0  0  0  0
   30.7566   21.6259    8.1870 N   0  0  0  0  0  0  0  0  0  0  0  0
   31.1539   20.8124    7.0961 N   0  0  0  0  0  0  0  0  0  0  0  0
   30.7113   21.3820    5.8775 N   0  0  0  0  0  0  0  0  0  0  0  0
   31.2729   22.6905    5.7041 N   0  0  0  0  0  0  0  0  0  0  0  0
   32.7142   22.6045    5.6926 N   0  0  0  0  0  0  0  0  0  0  0  0
   33.1334   21.7614    4.5958 N   0  0  0  0  0  0  0  0  0  0  0  0
   32.6512   22.3238    3.3661 N   0  0  0  0  0  0  0  0  0  0  0  0
   33.1727   23.6362    3.2326 N   0  0  0  0  0  0  0  0  0  0  0  0
   34.5912   23.5534    3.2573 N   0  0  0  0  0  0  0  0  0  0  0  0
   35.0182   22.7284    2.1688 N   0  0  0  0  0  0  0  0  0  0  0  0
   34.5770   23.2648    0.9135 N   0  0  0  0  0  0  0  0  0  0  0  0
   35.1025   24.5863    0.7126 N   0  0  0  0  0  0  0  0  0  0  0  0
   36.5431   24.5462    0.7177 N   0  0  0  0  0  0  0  0  0  0  0  0
   36.9928   23.6904   -0.3560 N   0  0  0  0  0  0  0  0  0  0  0  0
   36.5085   24.1964   -1.6092 N   0  0  0  0  0  0  0  0  0  0  0  0
   37.0072   25.5234   -1.7977 N   0  0  0  0  0  0  0  0  0  0  0  0
   38.4266   25.5012   -1.7904 N   0  0  0  0  0  0  0  0  0  0  0  0
   38.8973   24.6576   -2.8295 N   0  0  0  0  0  0  0  0  0  0  0  0
   38.4260   25.1356   -4.0904 N   0  0  0  0  0  0  0  0  0  0  0  0
   38.9156   26.4718   -4.3245 N   0  0  0  0  0  0  0  0  0  0  0  0
   40.3452   26.4777   -4.2928 N   0  0  0  0  0  0  0  0  0  0  0  0
   40.8062   25.5908   -5.3065 N   0  0  0  0  0  0  0  0  0  0  0  0
   40.3162   26.0624   -6.5691 N   0  0  0  0  0  0  0  0  0  0  0  0
   40.7742   27.4004   -6.7917 N   0  0  0  0  0  0  0  0  0  0  0  0
   42.2113   27.4269   -6.7891 N   0  0  0  0  0  0  0  0  0  0  0  0
   42.7450   26.5841   -7.8432 N   0  0  0  0  0  0  0  0  0  0  0  0
   42.2634   27.0081   -9.1285 N   0  0  0  0  0  0  0  0  0  0  0  0
   42.6981   28.3426   -9.3530 N   0  0  0  0  0  0  0  0  0  0  0  0
   44.1269   28.3795   -9.3236 N   0  0  0  0  0  0  0  0  0  0  0  0
   44.6430   27.4972  -10.3067 N   0  0  0  0  0  0  0  0  0  0  0  0
   44.1907   27.9132  -11.5926 N   0  0  0  0  0  0  0  0  0  0  0  0
   44.6054   29.2667  -11.8604 N   0  0  0  0  0  0  0  0  0  0  0  0
   46.0340   29.3414  -11.8180 N   0  0  0  0  0  0  0  0  0  0  0  0
   46.5611   28.4359  -12.7948 N   0  0  0  0  0  0  0  0  0  0  0  0
   46.0783   28.8315  -14.0872 N   0  0  0  0  0  0  0  0  0  0  0  0
   46.4689   30.1822  -14.3474 N   0  0  0  0  0  0  0  0  0  0  0  0
   47.9201   30.2871  -14.3699 N   0  0  0  0  0  0  0  0  0  0  0  0
   48.4954   29.3975  -15.3459 N   0  0  0  0  0  0  0  0  0  0  0  0
   48.0283   29.7584  -16.6408 N   0  0  0  0  0  0  0  0  0  0  0  0
   48.3986   31.1006  -16.9121 N   0  0  0  0  0  0  0  0  0  0  0  0
   49.8134   31.2016  -16.8427 N   0  0  0  0  0  0  0  0  0  0  0  0
   50.3950   30.3219  -17.8123 N   0  0  0  0  0  0  0  0  0  0  0  0
   49.9115   30.6545  -19.1258 N   0  0  0  0  0  0  0  0  0  0  0  0
   50.2815   32.0165  -19.4101 N   0  0  0  0  0  0  0  0  0  0  0  0
   51.7230   32.1452  -19.3520 N   0  0  0  0  0  0  0  0  0  0  0  0
   52.3337   31.2496  -20.3071 N   0  0  0  0  0  0  0  0  0  0  0  0
   51.8820   31.5823  -21.6384 N   0  0  0  0  0  0  0  0  0  0  0  0
   52.2331   32.9379  -21.9628 N   0  0  0  0  0  0  0  0  0  0  0  0
   53.6369   33.0938  -21.8783 N   0  0  0  0  0  0  0  0  0  0  0  0
   54.2473   32.1985  -22.7947 N   0  0  0  0  0  0  0  0  0  0  0  0
   53.7807   32.4998  -24.1199 N   0  0  0  0  0  0  0  0  0  0  0  0
   54.1025   33.8620  -24.4441 N   0  0  0  0  0  0  0  0  0  0  0  0
   55.5334   34.0491  -24.3766 N   0  0  0  0  0  0  0  0  0  0  0  0
   56.1918   33.1506  -25.3004 N   0  0  0  0  0  0  0  0  0  0  0  0
   55.7177   33.4176  -26.6297 N   0  0  0  0  0  0  0  0  0  0  0  0
   56.0249   34.7838  -26.9597 N   0  0  0  0  0  0  0  0  0  0  0  0
   57.4418   34.9866  -26.8754 N   0  0  0  0  0  0  0  0  0  0  0  0
   58.1125   34.1121  -27.8037 N   0  0  0  0  0  0  0  0  0  0  0  0
   57.6685   34.3556  -29.1544 N   0  0  0  0  0  0  0  0  0  0  0  0
   57.9530   35.7205  -29.5282 N   0  0  0  0  0  0  0  0  0  0  0  0
   26.3568   16.3053   22.8196 H   0  0  0  0  0  0  0  0  0  0  0  0
   23.3893   17.8604   22.6956 H   0  0  0  0  0  0  0  0  0  0  0  0
   23.1294   16.2795   21.9174 H   0  0  0  0  0  0  0  0  0  0  0  0
   23.6717   18.9231   20.4907 H   0  0  0  0  0  0  0  0  0  0  0  0
   22.0920   18.1222   20.6233 H   0  0  0  0  0  0  0  0  0  0  0  0
   22.9983   16.1441   19.4217 H   0  0  0  0  0  0  0  0  0  0  0  0
   24.5812   16.9469   19.2843 H   0  0  0  0  0  0  0  0  0  0  0  0
   23.5261   18.6973   18.0645 H   0  0  0  0  0  0  0  0  0  0  0  0
   22.8815   16.1136   17.0563 H   0  0  0  0  0  0  0  0  0  0  0  0
   21.9085   17.8393   15.8629 H   0  0  0  0  0  0  0  0  0  0  0  0
   23.3503   19.5286   16.5016 H   0  0  0  0  0  0  0  0  0  0  0  0
   25.2906   18.2949   16.5061 H   0  0  0  0  0  0  0  0  0  0  0  0
   24.8314   17.0303   14.6073 H   0  0  0  0  0  0  0  0  0  0  0  0
   23.8111   18.7461   13.3741 H   0  0  0  0  0  0  0  0  0  0  0  0
   25.2526   20.4659   14.0045 H   0  0  0  0  0  0  0  0  0  0  0  0
   27.2318   19.2514   13.9869 H   0  0  0  0  0  0  0  0  0  0  0  0
   26.7910   17.9807   12.1302 H   0  0  0  0  0  0  0  0  0  0  0  0
   25.7590   19.6361   10.8969 H   0  0  0  0  0  0  0  0  0  0  0  0
   27.1715   21.3821   11.5151 H   0  0  0  0  0  0  0  0  0  0  0  0
   29.1460   20.2221   11.5141 H   0  0  0  0  0  0  0  0  0  0  0  0
   28.7869   18.9500    9.6406 H   0  0  0  0  0  0  0  0  0  0  0  0
   27.7617   20.5640    8.3634 H   0  0  0  0  0  0  0  0  0  0  0  0
   29.0511   22.3168    9.0136 H   0  0  0  0  0  0  0  0  0  0  0  0
   31.0882   21.1835    9.0441 H   0  0  0  0  0  0  0  0  0  0  0  0
   30.7364   19.8906    7.1775 H   0  0  0  0  0  0  0  0  0  0  0  0
   29.7005   21.4749    5.9083 H   0  0  0  0  0  0  0  0  0  0  0  0
   30.9673   23.2438    6.5200 H   0  0  0  0  0  0  0  0  0  0  0  0
   32.9652   22.1686    6.6058 H   0  0  0  0  0  0  0  0  0  0  0  0
   32.6821   20.8540    4.7348 H   0  0  0  0  0  0  0  0  0  0  0  0
   31.6403   22.3850    3.4280 H   0  0  0  0  0  0  0  0  0  0  0  0
   32.8717   24.2085    4.0098 H   0  0  0  0  0  0  0  0  0  0  0  0
   34.9156   23.1464    4.1404 H   0  0  0  0  0  0  0  0  0  0  0  0
   34.6285   21.7912    2.2487 H   0  0  0  0  0  0  0  0  0  0  0  0
   33.5581   23.3237    0.9049 H   0  0  0  0  0  0  0  0  0  0  0  0
   34.7710   25.1753    1.4863 H   0  0  0  0  0  0  0  0  0  0  0  0
   36.8270   24.1467    1.6243 H   0  0  0  0  0  0  0  0  0  0  0  0
   36.5752   22.7730   -0.2150 H   0  0  0  0  0  0  0  0  0  0  0  0
   35.4925   24.2366   -1.5705 H   0  0  0  0  0  0  0  0  0  0  0  0
   36.6522   26.1090   -1.0279 H   0  0  0  0  0  0  0  0  0  0  0  0
   38.7714   25.1262   -0.9092 H   0  0  0  0  0  0  0  0  0  0  0  0
   38.5327   23.7162   -2.6994 H   0  0  0  0  0  0  0  0  0  0  0  0
   37.3929   25.1268   -4.0507 H   0  0  0  0  0  0  0  0  0  0  0  0
   38.5805   27.0431   -3.5460 H   0  0  0  0  0  0  0  0  0  0  0  0
   40.6333   26.1062   -3.3920 H   0  0  0  0  0  0  0  0  0  0  0  0
   40.4270   24.6602   -5.1048 H   0  0  0  0  0  0  0  0  0  0  0  0
   39.3042   26.0973   -6.5545 H   0  0  0  0  0  0  0  0  0  0  0  0
   40.4567   28.0192   -6.0540 H   0  0  0  0  0  0  0  0  0  0  0  0
   42.5427   27.1065   -5.8671 H   0  0  0  0  0  0  0  0  0  0  0  0
   42.4141   25.6312   -7.6908 H   0  0  0  0  0  0  0  0  0  0  0  0
   41.2375   26.9702   -9.1068 H   0  0  0  0  0  0  0  0  0  0  0  0
   42.3524   28.9351   -8.6052 H   0  0  0  0  0  0  0  0  0  0  0  0
   44.4420   28.0643   -8.4056 H   0  0  0  0  0  0  0  0  0  0  0  0
   44.3057   26.5437  -10.1160 H   0  0  0  0  0  0  0  0  0  0  0  0
   43.1754   27.8960  -11.6051 H   0  0  0  0  0  0  0  0  0  0  0  0
   44.1919   29.8409  -11.1056 H   0  0  0  0  0  0  0  0  0  0  0  0
   46.3422   29.0192  -10.9066 H   0  0  0  0  0  0  0  0  0  0  0  0
   46.2194   27.4949  -12.5722 H   0  0  0  0  0  0  0  0  0  0  0  0
   45.0661   28.8162  -14.1036 H   0  0  0  0  0  0  0  0  0  0  0  0
   46.0755   30.8085  -13.6388 H   0  0  0  0  0  0  0  0  0  0  0  0
   48.2755   30.0044  -13.4570 H   0  0  0  0  0  0  0  0  0  0  0  0
   48.2004   28.4367  -15.1038 H   0  0  0  0  0  0  0  0  0  0  0  0
   47.0108   29.6934  -16.6520 H   0  0  0  0  0  0  0  0  0  0  0  0
   48.0110   31.7087  -16.1895 H   0  0  0  0  0  0  0  0  0  0  0  0
   50.1033   30.9317  -15.8909 H   0  0  0  0  0  0  0  0  0  0  0  0
   50.0876   29.3728  -17.6061 H   0  0  0  0  0  0  0  0  0  0  0  0
   48.8847   30.5630  -19.0963 H   0  0  0  0  0  0  0  0  0  0  0  0
   49.8698   32.6172  -18.6905 H   0  0  0  0  0  0  0  0  0  0  0  0
   52.0510   31.8685  -18.4310 H   0  0  0  0  0  0  0  0  0  0  0  0
   52.0615   30.2871  -20.0566 H   0  0  0  0  0  0  0  0  0  0  0  0
   50.8584   31.4777  -21.6778 H   0  0  0  0  0  0  0  0  0  0  0  0
   51.8090   33.5655  -21.2789 H   0  0  0  0  0  0  0  0  0  0  0  0
   53.9364   32.8601  -20.9304 H   0  0  0  0  0  0  0  0  0  0  0  0
   53.9755   31.2397  -22.5366 H   0  0  0  0  0  0  0  0  0  0  0  0
   52.7554   32.3907  -24.1262 H   0  0  0  0  0  0  0  0  0  0  0  0
   53.6782   34.4719  -23.7463 H   0  0  0  0  0  0  0  0  0  0  0  0
   55.8271   33.8109  -23.4324 H   0  0  0  0  0  0  0  0  0  0  0  0
   55.9147   32.2026  -25.0354 H   0  0  0  0  0  0  0  0  0  0  0  0
   54.7000   33.2721  -26.6363 H   0  0  0  0  0  0  0  0  0  0  0  0
   55.5449   35.4044  -26.2849 H   0  0  0  0  0  0  0  0  0  0  0  0
   57.7739   34.7997  -25.9121 H   0  0  0  0  0  0  0  0  0  0  0  0
   57.9023   33.1308  -27.5486 H   0  0  0  0  0  0  0  0  0  0  0  0
   56.6506   34.2175  -29.1755 H   0  0  0  0  0  0  0  0  0  0  0  0
   58.9524   35.8610  -29.3853 H   0  0  0  0  0  0  0  0  0  0  0  0
   57.4957   36.3057  -28.8177 H   0  0  0  0  0  0  0  0  0  0  0  0
  1  2  1  0  0  0  0
  1 82  1  0  0  0  0
  2  3  1  0  0  0  0
  3  4  1  0  0  0  0
  3 83  1  0  0  0  0
  3 84  1  0  0  0  0
  4  5  1  0  0  0  0
  4 85  1  0  0  0  0
  4 86  1  0  0  0  0
  5  6  1  0  0  0  0
  5 87  1  0  0  0  0
  5 88  1  0  0  0  0
  6  7  1  0  0  0  0
  6 89  1  0  0  0  0
  7  8  1  0  0  0  0
  7 90  1  0  0  0  0
  8  9  1  0  0  0  0
  8 91  1  0  0  0  0
  9 10  1  0  0  0  0
  9 92  1  0  0  0  0
 10 11  1  0  0  0  0
 10 93  1  0  0  0  0
 11 12  1  0  0  0  0
 11 94  1  0  0  0  0
 12 13  1  0  0  0  0
 12 95  1  0  0  0  0
 13 14  1  0  0  0  0
 13 96  1  0  0  0  0
 14 15  1  0  0  0  0
 14 97  1  0  0  0  0
 15 16  1  0  0  0  0
 15 98  1  0  0  0  0
 16 17  1  0  0  0  0
 16 99  1  0  0  0  0
 17 18  1  0  0  0  0
 17100  1  0  0  0  0
 18 19  1  0  0  0  0
 18101  1  0  0  0  0
 19 20  1  0  0  0  0
 19102  1  0  0  0  0
 20 21  1  0  0  0  0
 20103  1  0  0  0  0
 21 22  1  0  0  0  0
 21104  1  0  0  0  0
 22 23  1  0  0  0  0
 22105  1  0  0  0  0
 23 24  1  0  0  0  0
 23106  1  0  0  0  0
 24 25  1  0  0  0  0
 24107  1  0  0  0  0
 25 26  1  0  0  0  0
 25108  1  0  0  0  0
 26 27  1  0  0  0  0
 26109  1  0  0  0  0
 27 28  1  0  0  0  0
 27110  1  0  0  0  0
 28 29  1  0  0  0  0
 28111  1  0  0  0  0
 29 30  1  0  0  0  0
 29112  1  0  0  0  0
 30 31  1  0  0  0  0
 30113  1  0  0  0  0
 31 32  1  0  0  0  0
 31114  1  0  0  0  0
 32 33  1  0  0  0  0
 32115  1  0  0  0  0
 33 34  1  0  0  0  0
 33116  1  0  0  0  0
 34 35  1  0  0  0  0
 34117  1  0  0  0  0
 35 36  1  0  0  0  0
 35118  1  0  0  0  0
 36 37  1  0  0  0  0
 36119  1  0  0  0  0
 37 38  1  0  0  0  0
 37120  1  0  0  0  0
 38 39  1  0  0  0  0
 38121  1  0  0  0  0
 39 40  1  0  0  0  0
 39122  1  0  0  0  0
 40 41  1  0  0  0  0
 40123  1  0  0  0  0
 41 42  1  0  0  0  0
 41124  1  0  0  0  0
 42 43  1  0  0  0  0
 42125  1  0  0  0  0
 43 44  1  0  0  0  0
 43126  1  0  0  0  0
 44 45  1  0  0  0  0
 44127  1  0  0  0  0
 45 46  1  0  0  0  0
 45128  1  0  0  0  0
 46 47  1  0  0  0  0
 46129  1  0  0  0  0
 47 48  1  0  0  0  0
 47130  1  0  0  0  0
 48 49  1  0  0  0  0
 48131  1  0  0  0  0
 49 50  1  0  0  0  0
 49132  1  0  0  0  0
 50 51  1  0  0  0  0
 50133  1  0  0  0  0
 51 52  1  0  0  0  0
 51134  1  0  0  0  0
 52 53  1  0  0  0  0
 52135  1  0  0  0  0
 53 54  1  0  0  0  0
 53136  1  0  0  0  0
 54 55  1  0  0  0  0
 54137  1  0  0  0  0
 55 56  1  0  0  0  0
 55138  1  0  0  0  0
 56 57  1  0  0  0  0
 56139  1  0  0  0  0
 57 58  1  0  0  0  0
 57140  1  0  0  0  0
 58 59  1  0  0  0  0
 58141  1  0  0  0  0
 59 60  1  0  0  0  0
 59142  1  0  0  0  0
 60 61  1  0  0  0  0
 60143  1  0  0  0  0
 61 62  1  0  0  0  0
 61144  1  0  0  0  0
 62 63  1  0  0  0  0
 62145  1  0  0  0  0
 63 64  1  0  0  0  0
 63146  1  0  0  0  0
 64 65  1  0  0  0  0
 64147  1  0  0  0  0
 65 66  1  0  0  0  0
 65148  1  0  0  0  0
 66 67  1  0  0  0  0
 66149  1  0  0  0  0
 67 68  1  0  0  0  0
 67150  1  0  0  0  0
 68 69  1  0  0  0  0
 68151  1  0  0  0  0
 69 70  1  0  0  0  0
 69152  1  0  0  0  0
 70 71  1  0  0  0  0
 70153  1  0  0  0  0
 71 72  1  0  0  0  0
 71154  1  0  0  0  0
 72 73  1  0  0  0  0
 72155  1  0  0  0  0
 73 74  1  0  0  0  0
 73156  1  0  0  0  0
 74 75  1  0  0  0  0
 74157  1  0  0  0  0
 75 76  1  0  0  0  0
 75158  1  0  0  0  0
 76 77  1  0  0  0  0
 76159  1  0  0  0  0
 77 78  1  0  0  0  0
 77160  1  0  0  0  0
 78 79  1  0  0  0  0
 78161  1  0  0  0  0
 79 80  1  0  0  0  0
 79162  1  0  0  0  0
 80 81  1  0  0  0  0
 80163  1  0  0  0  0
 81164  1  0  0  0  0
 81165  1  0  0  0  0
M  END
$$$$
