
 OpenBabel04232216453D

 58 59  0  0  0  0  0  0  0  0999 V2000
    6.1196    2.3369   -0.3722 C   0  0  0  0  0  0  0  0  0  0  0  0
    5.7660    0.8743   -0.5874 C   0  0  0  0  0  0  0  0  0  0  0  0
    6.3030    0.1606   -1.6794 C   0  0  0  0  0  0  0  0  0  0  0  0
    5.9866   -1.1163   -1.8464 C   0  0  0  0  0  0  0  0  0  0  0  0
    6.5646   -1.8860   -3.0227 C   0  0  0  0  0  0  0  0  0  0  0  0
    5.1678   -1.7322   -0.9948 N   0  0  0  0  0  0  0  0  0  0  0  0
    4.8359   -3.1485   -1.2066 C   0  0  0  0  0  0  0  0  0  0  0  0
    4.6397   -1.0781    0.0563 S   0  0  3  0  0  0  0  0  0  0  0  0
    5.1654   -1.9699    1.5411 C   0  0  0  0  0  0  0  0  0  0  0  0
    4.2970   -2.4685    2.3237 O   0  0  0  0  0  0  0  0  0  0  0  0
    6.5968   -2.1176    1.8417 N   0  0  0  0  0  0  0  0  0  0  0  0
    7.0236   -2.8403    3.0485 C   0  0  0  0  0  0  0  0  0  0  0  0
    8.3482   -2.9755    3.3275 C   0  0  0  0  0  0  0  0  0  0  0  0
    9.3868   -2.3792    2.3915 C   0  0  0  0  0  0  0  0  0  0  0  0
   10.6228   -1.9919    3.1868 C   0  0  0  0  0  0  0  0  0  0  0  0
   11.6622   -1.3975    2.2505 C   0  0  0  0  0  0  0  0  0  0  0  0
   12.8982   -1.0102    3.0459 C   0  0  0  0  0  0  0  0  0  0  0  0
   13.9376   -0.4158    2.1095 C   0  0  0  0  0  0  0  0  0  0  0  0
   15.1736   -0.0284    2.9049 C   0  0  0  0  0  0  0  0  0  0  0  0
   16.2130    0.5660    1.9685 C   0  0  0  0  0  0  0  0  0  0  0  0
   17.4482    0.9552    2.7642 C   0  0  0  0  0  0  0  0  0  0  0  0
   18.4876    1.5496    1.8279 C   0  0  0  0  0  0  0  0  0  0  0  0
    6.5822   -2.0930    1.8006 C   0  0  0  0  0  0  0  0  0  0  0  0
    4.9311    0.2366    0.2656 C   0  0  0  0  0  0  0  0  0  0  0  0
    6.7867    2.6598   -1.1440 H   0  0  0  0  0  0  0  0  0  0  0  0
    6.5932    2.4529    0.5802 H   0  0  0  0  0  0  0  0  0  0  0  0
    5.2278    2.9275   -0.4014 H   0  0  0  0  0  0  0  0  0  0  0  0
    6.9382    0.6293   -2.3441 H   0  0  0  0  0  0  0  0  0  0  0  0
    7.1953   -1.2396   -3.5966 H   0  0  0  0  0  0  0  0  0  0  0  0
    5.7679   -2.2463   -3.6393 H   0  0  0  0  0  0  0  0  0  0  0  0
    7.1376   -2.7138   -2.6604 H   0  0  0  0  0  0  0  0  0  0  0  0
    5.3388   -3.5058   -2.0809 H   0  0  0  0  0  0  0  0  0  0  0  0
    3.7788   -3.2516   -1.3360 H   0  0  0  0  0  0  0  0  0  0  0  0
    5.1485   -3.7190   -0.3571 H   0  0  0  0  0  0  0  0  0  0  0  0
    3.3103   -1.0575   -0.2297 H   0  0  0  0  0  0  0  0  0  0  0  0
    7.2695   -1.7324    1.2348 H   0  0  0  0  0  0  0  0  0  0  0  0
    8.9817   -1.5103    1.9163 H   0  0  0  0  0  0  0  0  0  0  0  0
    9.6530   -3.1011    1.6478 H   0  0  0  0  0  0  0  0  0  0  0  0
   11.0271   -2.8605    3.6632 H   0  0  0  0  0  0  0  0  0  0  0  0
   10.3570   -1.2690    3.9296 H   0  0  0  0  0  0  0  0  0  0  0  0
   11.2579   -0.5288    1.7741 H   0  0  0  0  0  0  0  0  0  0  0  0
   11.9281   -2.1204    1.5077 H   0  0  0  0  0  0  0  0  0  0  0  0
   13.3025   -1.8788    3.5222 H   0  0  0  0  0  0  0  0  0  0  0  0
   12.6323   -0.2873    3.7886 H   0  0  0  0  0  0  0  0  0  0  0  0
   13.5333    0.4529    1.6332 H   0  0  0  0  0  0  0  0  0  0  0  0
   14.2035   -1.1386    1.3668 H   0  0  0  0  0  0  0  0  0  0  0  0
   15.5779   -0.8971    3.3812 H   0  0  0  0  0  0  0  0  0  0  0  0
   14.9077    0.6945    3.6476 H   0  0  0  0  0  0  0  0  0  0  0  0
   15.8082    1.4338    1.4911 H   0  0  0  0  0  0  0  0  0  0  0  0
   16.4799   -0.1574    1.2266 H   0  0  0  0  0  0  0  0  0  0  0  0
   17.8530    0.0873    3.2416 H   0  0  0  0  0  0  0  0  0  0  0  0
   17.1813    1.6785    3.5061 H   0  0  0  0  0  0  0  0  0  0  0  0
   18.7545    0.8262    1.0860 H   0  0  0  0  0  0  0  0  0  0  0  0
   19.3571    1.8235    2.3880 H   0  0  0  0  0  0  0  0  0  0  0  0
   18.0828    2.4174    1.3505 H   0  0  0  0  0  0  0  0  0  0  0  0
    6.2838   -2.5701    0.8906 H   0  0  0  0  0  0  0  0  0  0  0  0
    6.0978   -1.2232    1.4085 H   0  0  0  0  0  0  0  0  0  0  0  0
    4.5192    0.7407    1.0664 H   0  0  0  0  0  0  0  0  0  0  0  0
  1  2  1  0  0  0  0
  1 25  1  0  0  0  0
  1 26  1  0  0  0  0
  1 27  1  0  0  0  0
  2  3  1  0  0  0  0
  2 24  2  0  0  0  0
  3  4  2  0  0  0  0
  3 28  1  0  0  0  0
  4  5  1  0  0  0  0
  4  6  1  0  0  0  0
  5 29  1  0  0  0  0
  5 30  1  0  0  0  0
  5 31  1  0  0  0  0
  6  7  1  0  0  0  0
  6  8  1  0  0  0  0
  7 32  1  0  0  0  0
  7 33  1  0  0  0  0
  7 34  1  0  0  0  0
  8  9  1  0  0  0  0
  8 24  1  0  0  0  0
  8 35  1  0  0  0  0
  9 10  2  0  0  0  0
  9 11  1  0  0  0  0
 11 12  1  0  0  0  0
 11 36  1  0  0  0  0
 12 13  2  0  0  0  0
 12 23  1  0  0  0  0
 13 14  1  0  0  0  0
 13 23  1  0  0  0  0
 14 15  1  0  0  0  0
 14 37  1  0  0  0  0
 14 38  1  0  0  0  0
 15 16  1  0  0  0  0
 15 39  1  0  0  0  0
 15 40  1  0  0  0  0
 16 17  1  0  0  0  0
 16 41  1  0  0  0  0
 16 42  1  0  0  0  0
 17 18  1  0  0  0  0
 17 43  1  0  0  0  0
 17 44  1  0  0  0  0
 18 19  1  0  0  0  0
 18 45  1  0  0  0  0
 18 46  1  0  0  0  0
 19 20  1  0  0  0  0
 19 47  1  0  0  0  0
 19 48  1  0  0  0  0
 20 21  1  0  0  0  0
 20 49  1  0  0  0  0
 20 50  1  0  0  0  0
 21 22  1  0  0  0  0
 21 51  1  0  0  0  0
 21 52  1  0  0  0  0
 22 53  1  0  0  0  0
 22 54  1  0  0  0  0
 22 55  1  0  0  0  0
 23 56  1  0  0  0  0
 23 57  1  0  0  0  0
 24 58  1  0  0  0  0
M  END
$$$$
