
 OpenBabel04232216433D

 38 40  0  0  1  0  0  0  0  0999 V2000
   -2.1362   -3.5120   -4.7454 C   0  0  0  0  0  0  0  0  0  0  0  0
   -3.6548   -3.3902   -4.4726 C   0  0  3  0  0  0  0  0  0  0  0  0
   -4.0310   -2.5029   -3.2231 C   0  0  0  0  0  0  0  0  0  0  0  0
   -5.1314   -3.1524   -2.4493 C   0  0  0  0  0  0  0  0  0  0  0  0
   -6.1349   -2.6009   -2.0324 O   0  0  0  0  0  0  0  0  0  0  0  0
   -4.6969   -4.6024   -2.2248 C   0  0  0  0  0  0  0  0  0  0  0  0
   -3.2299   -4.6572   -1.8438 C   0  0  0  0  0  0  0  0  0  0  0  0
   -2.5633   -6.0046   -1.9016 C   0  0  0  0  0  0  0  0  0  0  0  0
   -2.5254   -3.4963   -1.6908 C   0  0  0  0  0  0  0  0  0  0  0  0
   -1.0729   -3.2976   -1.3611 C   0  0  0  0  0  0  0  0  0  0  0  0
   -3.1835   -2.2656   -2.1832 C   0  0  0  0  0  0  0  0  0  0  0  0
   -4.4038   -4.7818   -4.5570 C   0  0  0  0  0  0  0  0  0  0  0  0
   -4.3486   -5.4584   -5.7285 C   0  0  0  0  0  0  0  0  0  0  0  0
   -5.5772   -5.4205   -6.4885 C   0  0  0  0  0  0  0  0  0  0  0  0
   -6.3631   -6.4824   -6.6756 C   0  0  0  0  0  0  0  0  0  0  0  0
   -7.7559   -6.2311   -6.2729 C   0  0  0  0  0  0  0  0  0  0  0  0
   -7.9629   -6.7361   -5.0530 C   0  0  0  0  0  0  0  0  0  0  0  0
   -7.7820   -5.9996   -3.8231 C   0  0  0  0  0  0  0  0  0  0  0  0
   -6.7291   -5.4117   -3.2145 C   0  0  0  0  0  0  0  0  0  0  0  0
   -5.2500   -5.1520   -3.3630 C   0  0  0  0  0  0  0  0  0  0  0  0
   -1.9362   -3.9340   -5.7352 H   0  0  0  0  0  0  0  0  0  0  0  0
   -1.6093   -4.1563   -4.0369 H   0  0  0  0  0  0  0  0  0  0  0  0
   -1.6594   -2.5241   -4.7268 H   0  0  0  0  0  0  0  0  0  0  0  0
   -4.0493   -2.8033   -5.3178 H   0  0  0  0  0  0  0  0  0  0  0  0
   -3.2508   -6.8139   -1.6494 H   0  0  0  0  0  0  0  0  0  0  0  0
   -1.6989   -6.0673   -1.2378 H   0  0  0  0  0  0  0  0  0  0  0  0
   -2.2070   -6.1793   -2.9260 H   0  0  0  0  0  0  0  0  0  0  0  0
   -0.4585   -4.1302   -1.7065 H   0  0  0  0  0  0  0  0  0  0  0  0
   -0.9372   -3.1747   -0.2824 H   0  0  0  0  0  0  0  0  0  0  0  0
   -0.6773   -2.3975   -1.8476 H   0  0  0  0  0  0  0  0  0  0  0  0
   -3.4912   -1.6110   -1.3598 H   0  0  0  0  0  0  0  0  0  0  0  0
   -3.5276   -5.2647   -6.4215 H   0  0  0  0  0  0  0  0  0  0  0  0
   -6.0159   -4.4189   -6.4777 H   0  0  0  0  0  0  0  0  0  0  0  0
   -5.9838   -7.4906   -6.5504 H   0  0  0  0  0  0  0  0  0  0  0  0
   -7.9850   -5.1713   -6.3970 H   0  0  0  0  0  0  0  0  0  0  0  0
   -8.0980   -7.8137   -4.9377 H   0  0  0  0  0  0  0  0  0  0  0  0
   -8.7101   -5.9989   -3.2482 H   0  0  0  0  0  0  0  0  0  0  0  0
   -7.0562   -5.0479   -2.2309 H   0  0  0  0  0  0  0  0  0  0  0  0
  1  2  1  0  0  0  0
  1 21  1  0  0  0  0
  1 22  1  0  0  0  0
  1 23  1  0  0  0  0
  2  3  1  0  0  0  0
  2 12  1  0  0  0  0
  2 24  1  0  0  0  0
  3  4  1  0  0  0  0
  3 11  2  0  0  0  0
  4  5  2  0  0  0  0
  4  6  1  0  0  0  0
  6  7  1  0  0  0  0
  6 20  2  0  0  0  0
  7  8  1  0  0  0  0
  7  9  2  0  0  0  0
  8 25  1  0  0  0  0
  8 26  1  0  0  0  0
  8 27  1  0  0  0  0
  9 10  1  0  0  0  0
  9 11  1  0  0  0  0
 10 28  1  0  0  0  0
 10 29  1  0  0  0  0
 10 30  1  0  0  0  0
 11 31  1  0  0  0  0
 12 13  2  3  0  0  0
 12 20  1  0  0  0  0
 13 14  1  0  0  0  0
 13 32  1  0  0  0  0
 14 15  2  3  0  0  0
 14 33  1  0  0  0  0
 15 16  1  0  0  0  0
 15 34  1  0  0  0  0
 16 17  2  3  0  0  0
 16 35  1  0  0  0  0
 17 18  1  0  0  0  0
 17 36  1  0  0  0  0
 18 19  2  3  0  0  0
 18 37  1  0  0  0  0
 19 20  1  0  0  0  0
 19 38  1  0  0  0  0
M  END
$$$$
