
 OpenBabel04232216493D

 66 67  0  0  1  0  0  0  0  0999 V2000
    0.7254    7.7923   -0.2919 C   0  0  0  0  0  0  0  0  0  0  0  0
    0.8876    6.3110    0.0485 C   0  0  3  0  0  0  0  0  0  0  0  0
   -0.4400    5.7252    0.5521 C   0  0  0  0  0  0  0  0  0  0  0  0
   -0.3589    4.3330    1.1778 C   0  0  0  0  0  0  0  0  0  0  0  0
    0.8565    4.1184    2.0863 C   0  0  0  0  0  0  0  0  0  0  0  0
    2.0324    3.3646    1.4578 C   0  0  0  0  0  0  0  0  0  0  0  0
    2.8377    3.9859    0.2730 C   0  0  0  0  0  0  0  0  0  0  0  0
    2.0367    4.2097   -1.0379 C   0  0  3  0  0  0  0  0  0  0  0  0
    2.7839    3.8581   -2.3572 C   0  0  0  0  0  0  0  0  0  0  0  0
    3.9844    4.6638   -2.8631 C   0  0  0  0  0  0  0  0  0  0  0  0
    3.8617    6.1188   -3.3626 C   0  0  0  0  0  0  0  0  0  0  0  0
    2.8791    6.8004   -4.3877 C   0  0  0  0  0  0  0  0  0  0  0  0
    2.9038    8.0375   -4.4513 O   0  0  0  0  0  0  0  0  0  0  0  0
    2.0537    6.1050   -5.4426 C   0  0  0  0  0  0  0  0  0  0  0  0
    2.7078    5.0771   -5.9902 C   0  0  0  0  0  0  0  0  0  0  0  0
    2.2311    4.2680   -7.0470 C   0  0  0  0  0  0  0  0  0  0  0  0
    1.7563    3.0530   -6.7433 C   0  0  0  0  0  0  0  0  0  0  0  0
    0.9018    2.2700   -7.5037 N   0  0  0  0  0  0  0  0  0  0  0  0
   -0.4785    2.1041   -6.9804 C   0  0  0  0  0  0  0  0  0  0  0  0
   -1.1286    3.4662   -7.1024 C   0  0  0  0  0  0  0  0  0  0  0  0
   -2.6009    3.6572   -7.3433 C   0  0  0  0  0  0  0  0  0  0  0  0
   -2.8043    5.1805   -7.5473 C   0  0  0  0  0  0  0  0  0  0  0  0
   -1.9558    6.1349   -6.5903 C   0  0  0  0  0  0  0  0  0  0  0  0
   -0.4626    6.5046   -7.0340 C   0  0  0  0  0  0  0  0  0  0  0  0
    0.7941    6.8802   -6.0548 C   0  0  0  0  0  0  0  0  0  0  0  0
    1.3999    5.5641   -1.1484 C   0  0  0  0  0  3  0  0  0  0  0  0
    0.3754    8.3520    0.5818 H   0  0  0  0  0  0  0  0  0  0  0  0
    0.0091    7.9454   -1.1050 H   0  0  0  0  0  0  0  0  0  0  0  0
    1.6859    8.2250   -0.5944 H   0  0  0  0  0  0  0  0  0  0  0  0
    1.6335    6.2861    0.8466 H   0  0  0  0  0  0  0  0  0  0  0  0
   -1.1758    5.6942   -0.2633 H   0  0  0  0  0  0  0  0  0  0  0  0
   -0.8599    6.4024    1.3067 H   0  0  0  0  0  0  0  0  0  0  0  0
   -0.4083    3.5483    0.4121 H   0  0  0  0  0  0  0  0  0  0  0  0
   -1.2659    4.1948    1.7797 H   0  0  0  0  0  0  0  0  0  0  0  0
    0.5153    3.5000    2.9329 H   0  0  0  0  0  0  0  0  0  0  0  0
    1.1846    5.0558    2.5473 H   0  0  0  0  0  0  0  0  0  0  0  0
    1.6832    2.3721    1.1458 H   0  0  0  0  0  0  0  0  0  0  0  0
    2.7555    3.1811    2.2641 H   0  0  0  0  0  0  0  0  0  0  0  0
    3.6589    3.2842    0.0729 H   0  0  0  0  0  0  0  0  0  0  0  0
    3.3236    4.9097    0.6111 H   0  0  0  0  0  0  0  0  0  0  0  0
    1.2197    3.4785   -1.0190 H   0  0  0  0  0  0  0  0  0  0  0  0
    2.0493    3.8139   -3.1707 H   0  0  0  0  0  0  0  0  0  0  0  0
    3.1401    2.8228   -2.2362 H   0  0  0  0  0  0  0  0  0  0  0  0
    4.4449    4.0716   -3.6658 H   0  0  0  0  0  0  0  0  0  0  0  0
    4.7441    4.6538   -2.0647 H   0  0  0  0  0  0  0  0  0  0  0  0
    4.8648    6.3414   -3.7709 H   0  0  0  0  0  0  0  0  0  0  0  0
    3.7937    6.7403   -2.4579 H   0  0  0  0  0  0  0  0  0  0  0  0
    3.6893    4.7604   -5.6399 H   0  0  0  0  0  0  0  0  0  0  0  0
    2.1129    4.7138   -8.0450 H   0  0  0  0  0  0  0  0  0  0  0  0
    1.8169    2.6880   -5.7109 H   0  0  0  0  0  0  0  0  0  0  0  0
    0.8500    2.6544   -8.4538 H   0  0  0  0  0  0  0  0  0  0  0  0
   -0.4306    1.8114   -5.9212 H   0  0  0  0  0  0  0  0  0  0  0  0
   -0.9902    1.3303   -7.5427 H   0  0  0  0  0  0  0  0  0  0  0  0
   -0.6580    3.9802   -7.9426 H   0  0  0  0  0  0  0  0  0  0  0  0
   -0.8715    3.9961   -6.1765 H   0  0  0  0  0  0  0  0  0  0  0  0
   -3.2016    3.2796   -6.5076 H   0  0  0  0  0  0  0  0  0  0  0  0
   -2.9237    3.1042   -8.2387 H   0  0  0  0  0  0  0  0  0  0  0  0
   -2.5852    5.4230   -8.5965 H   0  0  0  0  0  0  0  0  0  0  0  0
   -3.8803    5.3741   -7.4222 H   0  0  0  0  0  0  0  0  0  0  0  0
   -2.5301    7.0744   -6.5991 H   0  0  0  0  0  0  0  0  0  0  0  0
   -2.0094    5.7609   -5.5642 H   0  0  0  0  0  0  0  0  0  0  0  0
   -0.6443    7.4745   -7.5296 H   0  0  0  0  0  0  0  0  0  0  0  0
   -0.1211    5.8835   -7.8619 H   0  0  0  0  0  0  0  0  0  0  0  0
    0.4151    7.5644   -5.2919 H   0  0  0  0  0  0  0  0  0  0  0  0
    1.3513    7.5308   -6.7535 H   0  0  0  0  0  0  0  0  0  0  0  0
    0.9582    5.8182   -2.1090 H   0  0  0  0  0  0  0  0  0  0  0  0
  1  2  1  0  0  0  0
  1 27  1  0  0  0  0
  1 28  1  0  0  0  0
  1 29  1  0  0  0  0
  2  3  1  0  0  0  0
  2 26  1  0  0  0  0
  2 30  1  0  0  0  0
  3  4  1  0  0  0  0
  3 31  1  0  0  0  0
  3 32  1  0  0  0  0
  4  5  1  0  0  0  0
  4 33  1  0  0  0  0
  4 34  1  0  0  0  0
  5  6  1  0  0  0  0
  5 35  1  0  0  0  0
  5 36  1  0  0  0  0
  6  7  1  0  0  0  0
  6 37  1  0  0  0  0
  6 38  1  0  0  0  0
  7  8  1  0  0  0  0
  7 39  1  0  0  0  0
  7 40  1  0  0  0  0
  8  9  1  0  0  0  0
  8 26  1  0  0  0  0
  8 41  1  0  0  0  0
  9 10  1  0  0  0  0
  9 42  1  0  0  0  0
  9 43  1  0  0  0  0
 10 11  1  0  0  0  0
 10 44  1  0  0  0  0
 10 45  1  0  0  0  0
 11 12  1  0  0  0  0
 11 46  1  0  0  0  0
 11 47  1  0  0  0  0
 12 13  2  0  0  0  0
 12 14  1  0  0  0  0
 14 15  2  3  0  0  0
 14 25  1  0  0  0  0
 15 16  1  0  0  0  0
 15 48  1  0  0  0  0
 16 17  2  3  0  0  0
 16 49  1  0  0  0  0
 17 18  1  0  0  0  0
 17 50  1  0  0  0  0
 18 19  1  0  0  0  0
 18 51  1  0  0  0  0
 19 20  1  0  0  0  0
 19 52  1  0  0  0  0
 19 53  1  0  0  0  0
 20 21  1  0  0  0  0
 20 54  1  0  0  0  0
 20 55  1  0  0  0  0
 21 22  1  0  0  0  0
 21 56  1  0  0  0  0
 21 57  1  0  0  0  0
 22 23  1  0  0  0  0
 22 58  1  0  0  0  0
 22 59  1  0  0  0  0
 23 24  1  0  0  0  0
 23 60  1  0  0  0  0
 23 61  1  0  0  0  0
 24 25  1  0  0  0  0
 24 62  1  0  0  0  0
 24 63  1  0  0  0  0
 25 64  1  0  0  0  0
 25 65  1  0  0  0  0
 26 66  1  0  0  0  0
M  END
$$$$
