
 OpenBabel04232216513D

 35 35  0  0  1  0  0  0  0  0999 V2000
    1.1134   -0.2668   -1.3268 C   0  0  0  0  0  0  0  0  0  0  0  0
    2.3439    0.0852   -0.4901 C   0  0  0  0  0  0  0  0  0  0  0  0
    3.1781   -1.1542   -0.0990 C   0  0  3  0  0  0  0  0  0  0  0  0
    3.6372   -1.8514   -1.3587 C   0  0  0  0  0  3  0  0  0  0  0  0
    3.8464   -3.3283   -1.5053 C   0  0  0  0  0  0  0  0  0  0  0  0
    3.3219   -4.2505   -0.4030 C   0  0  0  0  0  0  0  0  0  0  0  0
    4.2712   -4.4608    0.7815 C   0  0  0  0  0  0  0  0  0  0  0  0
    4.4683   -3.2697    1.7191 C   0  0  0  0  0  0  0  0  0  0  0  0
    5.2555   -2.1029    1.0996 C   0  0  0  0  0  0  0  0  0  0  0  0
    4.4084   -0.8288    0.8171 C   0  0  3  0  0  0  0  0  0  0  0  0
    4.0009   -0.1336    2.1440 C   0  0  0  0  0  0  0  0  0  0  0  0
    5.1765    0.3944    2.9666 C   0  0  0  0  0  0  0  0  0  0  0  0
    0.4547    0.6034   -1.4141 H   0  0  0  0  0  0  0  0  0  0  0  0
    0.5399   -1.0776   -0.8642 H   0  0  0  0  0  0  0  0  0  0  0  0
    1.3885   -0.5747   -2.3405 H   0  0  0  0  0  0  0  0  0  0  0  0
    1.9795    0.5911    0.4079 H   0  0  0  0  0  0  0  0  0  0  0  0
    2.9598    0.8078   -1.0393 H   0  0  0  0  0  0  0  0  0  0  0  0
    2.4991   -1.8117    0.4522 H   0  0  0  0  0  0  0  0  0  0  0  0
    3.9818   -1.2317   -2.1838 H   0  0  0  0  0  0  0  0  0  0  0  0
    4.9153   -3.5160   -1.6708 H   0  0  0  0  0  0  0  0  0  0  0  0
    3.3509   -3.6145   -2.4429 H   0  0  0  0  0  0  0  0  0  0  0  0
    3.1764   -5.2391   -0.8599 H   0  0  0  0  0  0  0  0  0  0  0  0
    2.3298   -3.9389   -0.0568 H   0  0  0  0  0  0  0  0  0  0  0  0
    5.2463   -4.8049    0.4163 H   0  0  0  0  0  0  0  0  0  0  0  0
    3.8669   -5.2857    1.3837 H   0  0  0  0  0  0  0  0  0  0  0  0
    5.0382   -3.6273    2.5845 H   0  0  0  0  0  0  0  0  0  0  0  0
    3.5013   -2.9502    2.1191 H   0  0  0  0  0  0  0  0  0  0  0  0
    5.7698   -2.4201    0.1866 H   0  0  0  0  0  0  0  0  0  0  0  0
    6.0801   -1.8515    1.7741 H   0  0  0  0  0  0  0  0  0  0  0  0
    5.0560   -0.1266    0.2714 H   0  0  0  0  0  0  0  0  0  0  0  0
    3.4117   -0.8164    2.7650 H   0  0  0  0  0  0  0  0  0  0  0  0
    3.3625    0.7298    1.9417 H   0  0  0  0  0  0  0  0  0  0  0  0
    5.9280   -0.3677    3.1830 H   0  0  0  0  0  0  0  0  0  0  0  0
    4.8165    0.7677    3.9311 H   0  0  0  0  0  0  0  0  0  0  0  0
    5.6691    1.2244    2.4494 H   0  0  0  0  0  0  0  0  0  0  0  0
  1  2  1  0  0  0  0
  1 13  1  0  0  0  0
  1 14  1  0  0  0  0
  1 15  1  0  0  0  0
  2  3  1  0  0  0  0
  2 16  1  0  0  0  0
  2 17  1  0  0  0  0
  3  4  1  0  0  0  0
  3 10  1  0  0  0  0
  3 18  1  0  0  0  0
  4  5  1  0  0  0  0
  4 19  1  0  0  0  0
  5  6  1  0  0  0  0
  5 20  1  0  0  0  0
  5 21  1  0  0  0  0
  6  7  1  0  0  0  0
  6 22  1  0  0  0  0
  6 23  1  0  0  0  0
  7  8  1  0  0  0  0
  7 24  1  0  0  0  0
  7 25  1  0  0  0  0
  8  9  1  0  0  0  0
  8 26  1  0  0  0  0
  8 27  1  0  0  0  0
  9 10  1  0  0  0  0
  9 28  1  0  0  0  0
  9 29  1  0  0  0  0
 10 11  1  0  0  0  0
 10 30  1  0  0  0  0
 11 12  1  0  0  0  0
 11 31  1  0  0  0  0
 11 32  1  0  0  0  0
 12 33  1  0  0  0  0
 12 34  1  0  0  0  0
 12 35  1  0  0  0  0
M  END
$$$$
