
 OpenBabel04232217003D

 58 58  0  0  0  0  0  0  0  0999 V2000
    6.6646   -3.4291   -2.3639 O   0  0  0  0  0  0  0  0  0  0  0  0
    6.7871   -2.0317   -2.3003 C   0  0  0  0  0  0  0  0  0  0  0  0
    5.7269   -1.3376   -1.8283 C   0  0  0  0  0  0  0  0  0  0  0  0
    5.3917    0.0677   -1.5486 C   0  0  0  0  0  0  0  0  0  0  0  0
    5.4858    0.5406   -0.2869 C   0  0  0  0  0  0  0  0  0  0  0  0
    5.2270    1.0384   -2.6455 C   0  0  0  0  0  0  0  0  0  0  0  0
    4.0574    0.8171   -3.6041 C   0  0  0  0  0  0  0  0  0  0  0  0
    2.6065    0.9403   -3.1554 C   0  0  0  0  0  0  0  0  0  0  0  0
    6.4054    1.6267   -2.9505 C   0  0  0  0  0  0  0  0  0  0  0  0
    7.1676    1.4641   -4.2026 C   0  0  0  0  0  0  0  0  0  0  0  0
    6.4156    0.8485   -5.3341 C   0  0  0  0  0  0  0  0  0  0  0  0
    8.5191    1.6222   -4.2262 C   0  0  0  0  0  0  0  0  0  0  0  0
    9.3479    1.5630   -2.9150 C   0  0  0  0  0  0  0  0  0  0  0  0
    9.4665    1.5526   -5.4486 C   0  0  0  0  0  0  0  0  0  0  0  0
    9.0802    0.9332   -6.8282 C   0  0  0  0  0  0  0  0  0  0  0  0
    8.1343    1.6251   -7.8002 C   0  0  0  0  0  0  0  0  0  0  0  0
    8.4127    3.0698   -8.1618 C   0  0  0  0  0  0  0  0  0  0  0  0
    9.5621    3.2622   -9.1435 C   0  0  0  0  0  0  0  0  0  0  0  0
    9.5322    4.6893   -9.6732 C   0  0  0  0  0  0  0  0  0  0  0  0
   10.6970    1.8359   -5.1456 N   0  0  0  0  0  0  0  0  0  0  0  0
   11.6755    1.0560   -5.7199 C   0  0  0  0  0  0  0  0  0  0  0  0
   11.7483   -0.2645   -5.4073 C   0  0  0  0  0  0  0  0  0  0  0  0
   10.5606   -0.9877   -5.3100 N   0  0  0  0  0  0  0  0  0  0  0  0
   10.1890   -1.4525   -4.1563 C   0  0  0  0  0  0  0  0  0  0  0  0
    8.7369   -1.8266   -3.8830 C   0  0  0  0  0  0  0  0  0  0  0  0
    8.1464   -1.6329   -2.6769 C   0  0  0  0  0  0  0  0  0  0  0  0
    5.9122   -3.6848   -1.8001 H   0  0  0  0  0  0  0  0  0  0  0  0
    4.8257   -1.9185   -1.6302 H   0  0  0  0  0  0  0  0  0  0  0  0
    4.9573   -0.0364    0.4808 H   0  0  0  0  0  0  0  0  0  0  0  0
    6.4994    0.4689    0.1390 H   0  0  0  0  0  0  0  0  0  0  0  0
    4.1252   -0.1906   -4.0247 H   0  0  0  0  0  0  0  0  0  0  0  0
    4.1480    1.5488   -4.4178 H   0  0  0  0  0  0  0  0  0  0  0  0
    2.3237    0.1263   -2.4833 H   0  0  0  0  0  0  0  0  0  0  0  0
    1.9706    0.8457   -4.0498 H   0  0  0  0  0  0  0  0  0  0  0  0
    2.3758    1.9033   -2.6955 H   0  0  0  0  0  0  0  0  0  0  0  0
    7.0161    1.9070   -2.0954 H   0  0  0  0  0  0  0  0  0  0  0  0
    5.7042    0.0909   -5.0277 H   0  0  0  0  0  0  0  0  0  0  0  0
    7.0223    0.1915   -5.9385 H   0  0  0  0  0  0  0  0  0  0  0  0
    5.8949    1.6101   -5.9148 H   0  0  0  0  0  0  0  0  0  0  0  0
    8.7976    1.2494   -2.0232 H   0  0  0  0  0  0  0  0  0  0  0  0
    9.8604    2.4986   -2.6942 H   0  0  0  0  0  0  0  0  0  0  0  0
   10.1124    0.7785   -2.9802 H   0  0  0  0  0  0  0  0  0  0  0  0
    8.7354   -0.0928   -6.6551 H   0  0  0  0  0  0  0  0  0  0  0  0
    9.9930    0.7795   -7.4090 H   0  0  0  0  0  0  0  0  0  0  0  0
    7.1127    1.6076   -7.4448 H   0  0  0  0  0  0  0  0  0  0  0  0
    8.1001    1.0150   -8.7127 H   0  0  0  0  0  0  0  0  0  0  0  0
    8.5661    3.6723   -7.2603 H   0  0  0  0  0  0  0  0  0  0  0  0
    7.4978    3.4474   -8.6372 H   0  0  0  0  0  0  0  0  0  0  0  0
    9.4705    2.5645   -9.9853 H   0  0  0  0  0  0  0  0  0  0  0  0
   10.5206    3.0630   -8.6522 H   0  0  0  0  0  0  0  0  0  0  0  0
    8.6015    4.8763  -10.2212 H   0  0  0  0  0  0  0  0  0  0  0  0
   10.3671    4.8703  -10.3546 H   0  0  0  0  0  0  0  0  0  0  0  0
    9.5892    5.4113   -8.8521 H   0  0  0  0  0  0  0  0  0  0  0  0
   12.0196    1.4025   -6.6960 H   0  0  0  0  0  0  0  0  0  0  0  0
   12.4665   -0.4417   -4.6016 H   0  0  0  0  0  0  0  0  0  0  0  0
   10.8650   -1.5211   -3.2829 H   0  0  0  0  0  0  0  0  0  0  0  0
    8.1820   -2.1510   -4.7583 H   0  0  0  0  0  0  0  0  0  0  0  0
    8.7626   -1.2781   -1.8508 H   0  0  0  0  0  0  0  0  0  0  0  0
  1  2  1  0  0  0  0
  1 27  1  0  0  0  0
  2  3  2  3  0  0  0
  2 26  1  0  0  0  0
  3  4  1  0  0  0  0
  3 28  1  0  0  0  0
  4  5  2  0  0  0  0
  4  6  1  0  0  0  0
  5 29  1  0  0  0  0
  5 30  1  0  0  0  0
  6  7  1  0  0  0  0
  6  9  2  3  0  0  0
  7  8  1  0  0  0  0
  7 31  1  0  0  0  0
  7 32  1  0  0  0  0
  8 33  1  0  0  0  0
  8 34  1  0  0  0  0
  8 35  1  0  0  0  0
  9 10  1  0  0  0  0
  9 36  1  0  0  0  0
 10 11  1  0  0  0  0
 10 12  2  3  0  0  0
 11 37  1  0  0  0  0
 11 38  1  0  0  0  0
 11 39  1  0  0  0  0
 12 13  1  0  0  0  0
 12 14  1  0  0  0  0
 13 40  1  0  0  0  0
 13 41  1  0  0  0  0
 13 42  1  0  0  0  0
 14 15  1  0  0  0  0
 14 20  2  3  0  0  0
 15 16  1  0  0  0  0
 15 43  1  0  0  0  0
 15 44  1  0  0  0  0
 16 17  1  0  0  0  0
 16 45  1  0  0  0  0
 16 46  1  0  0  0  0
 17 18  1  0  0  0  0
 17 47  1  0  0  0  0
 17 48  1  0  0  0  0
 18 19  1  0  0  0  0
 18 49  1  0  0  0  0
 18 50  1  0  0  0  0
 19 51  1  0  0  0  0
 19 52  1  0  0  0  0
 19 53  1  0  0  0  0
 20 21  1  0  0  0  0
 21 22  2  3  0  0  0
 21 54  1  0  0  0  0
 22 23  1  0  0  0  0
 22 55  1  0  0  0  0
 23 24  2  3  0  0  0
 24 25  1  0  0  0  0
 24 56  1  0  0  0  0
 25 26  2  3  0  0  0
 25 57  1  0  0  0  0
 26 58  1  0  0  0  0
M  END
$$$$
