
 OpenBabel04232216513D

 18 18  0  0  1  0  0  0  0  0999 V2000
    0.9272    0.0254    0.1456 C   0  0  0  0  0  0  0  0  0  0  0  0
    2.4541   -0.0660   -0.0148 C   0  0  3  0  0  0  0  0  0  0  0  0
    2.8704   -1.4619   -0.3229 N   0  0  0  0  0  2  0  0  0  0  0  0
    2.5292   -1.7794   -1.7207 C   0  0  0  0  0  0  0  0  0  0  0  0
    3.0806   -0.7600   -2.7390 C   0  0  0  0  0  0  0  0  0  0  0  0
    2.7089    0.6416   -2.4544 N   0  0  0  0  0  2  0  0  0  0  0  0
    2.9685    0.9919   -1.0440 C   0  0  3  0  0  0  0  0  0  0  0  0
    4.7662    1.2894   -0.8194 S   0  0  0  0  0  0  0  0  0  0  0  0
    0.5630   -0.7139    0.8667 H   0  0  0  0  0  0  0  0  0  0  0  0
    0.3964   -0.1402   -0.7993 H   0  0  0  0  0  0  0  0  0  0  0  0
    0.6399    1.0169    0.5110 H   0  0  0  0  0  0  0  0  0  0  0  0
    2.8603    0.2009    0.9718 H   0  0  0  0  0  0  0  0  0  0  0  0
    1.4437   -1.8725   -1.8556 H   0  0  0  0  0  0  0  0  0  0  0  0
    2.9331   -2.7659   -1.9846 H   0  0  0  0  0  0  0  0  0  0  0  0
    2.6999   -1.0411   -3.7302 H   0  0  0  0  0  0  0  0  0  0  0  0
    4.1697   -0.8769   -2.8095 H   0  0  0  0  0  0  0  0  0  0  0  0
    2.4962    1.9553   -0.8153 H   0  0  0  0  0  0  0  0  0  0  0  0
    5.0263   -0.0235   -0.9232 H   0  0  0  0  0  0  0  0  0  0  0  0
  1  2  1  0  0  0  0
  1  9  1  0  0  0  0
  1 10  1  0  0  0  0
  1 11  1  0  0  0  0
  2  3  1  0  0  0  0
  2  7  1  0  0  0  0
  2 12  1  0  0  0  0
  3  4  1  0  0  0  0
  4  5  1  0  0  0  0
  4 13  1  0  0  0  0
  4 14  1  0  0  0  0
  5  6  1  0  0  0  0
  5 15  1  0  0  0  0
  5 16  1  0  0  0  0
  6  7  1  0  0  0  0
  7  8  1  0  0  0  0
  7 17  1  0  0  0  0
  8 18  1  0  0  0  0
M  END
$$$$
