
 OpenBabel04232216473D

 39 40  0  0  1  0  0  0  0  0999 V2000
    0.6366   -1.6351    1.6907 C   0  0  0  0  0  0  0  0  0  0  0  0
   -0.6484   -0.8658    1.4767 C   0  0  0  0  0  0  0  0  0  0  0  0
   -1.1350    0.0980    2.3739 C   0  0  0  0  0  0  0  0  0  0  0  0
   -2.3726    0.7948    2.1555 C   0  0  0  0  0  0  0  0  0  0  0  0
   -3.1771    0.5419    1.0320 C   0  0  0  0  0  0  0  0  0  0  0  0
   -4.4703    1.3156    0.5851 C   0  0  3  0  0  0  0  0  0  0  0  0
   -4.0609    2.4768   -0.2833 C   0  0  0  0  0  0  0  0  0  0  0  0
   -4.4634    2.4846   -1.5615 C   0  0  0  0  0  0  0  0  0  0  0  0
   -5.1881    3.6966   -2.0655 C   0  0  0  0  0  0  0  0  0  0  0  0
   -6.6228    3.2489   -2.3445 C   0  0  0  0  0  0  0  0  0  0  0  0
   -7.5011    3.6762   -1.2004 C   0  0  0  0  0  0  0  0  0  0  0  0
   -8.0816    4.7541   -1.1505 O   0  0  0  0  0  0  0  0  0  0  0  0
   -7.6789    2.6332   -0.0953 C   0  0  0  0  0  0  0  0  0  0  0  0
   -6.9086    2.8612    1.0105 C   0  0  0  0  0  0  0  0  0  0  0  0
   -7.4823    3.7833    1.8652 N   0  0  0  0  0  0  0  0  0  0  0  0
   -7.2698    4.0833    3.1999 C   0  0  0  0  0  0  0  0  0  0  0  0
   -6.4465    3.5847    3.9459 O   0  0  0  0  0  0  0  0  0  0  0  0
   -5.7256    1.8573    1.5065 C   0  0  0  0  0  0  0  0  0  0  0  0
   -2.6348   -0.4144    0.1266 C   0  0  0  0  0  0  0  0  0  0  0  0
   -1.4162   -1.1032    0.3408 C   0  0  0  0  0  0  0  0  0  0  0  0
    1.1904   -1.2976    2.5737 H   0  0  0  0  0  0  0  0  0  0  0  0
    1.3090   -1.5312    0.8289 H   0  0  0  0  0  0  0  0  0  0  0  0
    0.4295   -2.7047    1.8234 H   0  0  0  0  0  0  0  0  0  0  0  0
   -0.5386    0.3370    3.2558 H   0  0  0  0  0  0  0  0  0  0  0  0
   -2.6499    1.5588    2.8778 H   0  0  0  0  0  0  0  0  0  0  0  0
   -4.9822    0.5673   -0.0407 H   0  0  0  0  0  0  0  0  0  0  0  0
   -3.8257    3.3997    0.2409 H   0  0  0  0  0  0  0  0  0  0  0  0
   -4.6885    1.5432   -2.0651 H   0  0  0  0  0  0  0  0  0  0  0  0
   -4.7083    4.0982   -2.9567 H   0  0  0  0  0  0  0  0  0  0  0  0
   -5.1833    4.4844   -1.2974 H   0  0  0  0  0  0  0  0  0  0  0  0
   -6.7342    2.1613   -2.4402 H   0  0  0  0  0  0  0  0  0  0  0  0
   -7.0045    3.6667   -3.2810 H   0  0  0  0  0  0  0  0  0  0  0  0
   -8.7651    2.8088    0.0487 H   0  0  0  0  0  0  0  0  0  0  0  0
   -8.2437    4.3701    1.4638 H   0  0  0  0  0  0  0  0  0  0  0  0
   -7.9797    4.8536    3.5509 H   0  0  0  0  0  0  0  0  0  0  0  0
   -6.2739    0.9567    1.8154 H   0  0  0  0  0  0  0  0  0  0  0  0
   -5.2881    2.2811    2.4098 H   0  0  0  0  0  0  0  0  0  0  0  0
   -3.1493   -0.6207   -0.8101 H   0  0  0  0  0  0  0  0  0  0  0  0
   -1.0643   -1.8153   -0.4058 H   0  0  0  0  0  0  0  0  0  0  0  0
  1  2  1  0  0  0  0
  1 21  1  0  0  0  0
  1 22  1  0  0  0  0
  1 23  1  0  0  0  0
  2  3  1  0  0  0  0
  2 20  2  0  0  0  0
  3  4  2  0  0  0  0
  3 24  1  0  0  0  0
  4  5  1  0  0  0  0
  4 25  1  0  0  0  0
  5  6  1  0  0  0  0
  5 19  2  0  0  0  0
  6  7  1  0  0  0  0
  6 18  1  0  0  0  0
  6 26  1  0  0  0  0
  7  8  2  3  0  0  0
  7 27  1  0  0  0  0
  8  9  1  0  0  0  0
  8 28  1  0  0  0  0
  9 10  1  0  0  0  0
  9 29  1  0  0  0  0
  9 30  1  0  0  0  0
 10 11  1  0  0  0  0
 10 31  1  0  0  0  0
 10 32  1  0  0  0  0
 11 12  2  0  0  0  0
 11 13  1  0  0  0  0
 13 14  2  3  0  0  0
 13 33  1  0  0  0  0
 14 15  1  0  0  0  0
 14 18  1  0  0  0  0
 15 16  1  0  0  0  0
 15 34  1  0  0  0  0
 16 17  2  0  0  0  0
 16 35  1  0  0  0  0
 18 36  1  0  0  0  0
 18 37  1  0  0  0  0
 19 20  1  0  0  0  0
 19 38  1  0  0  0  0
 20 39  1  0  0  0  0
M  END
$$$$
