
 OpenBabel04232216523D

 37 37  0  0  1  0  0  0  0  0999 V2000
    1.9443    4.1461    2.0334 C   0  0  0  0  0  0  0  0  0  0  0  0
    2.5765    3.6387    0.7470 C   0  0  0  0  0  0  0  0  0  0  0  0
    3.3883    2.3662    0.9847 C   0  0  0  0  0  0  0  0  0  0  0  0
    3.9574    1.7862   -0.3173 C   0  0  0  0  0  0  0  0  0  0  0  0
    5.0433    2.6319   -1.0180 C   0  0  3  0  0  0  0  0  0  0  0  0
    6.2788    2.9763   -0.1516 C   0  0  0  0  0  0  0  0  0  0  0  0
    7.4075    1.9507    0.0351 C   0  0  0  0  0  0  0  0  0  0  0  0
    7.0170    0.5728    0.5705 C   0  0  0  0  0  0  0  0  0  0  0  0
    7.1498   -0.5680   -0.4462 C   0  0  0  0  0  0  0  0  0  0  0  0
    6.8580   -0.1698   -1.7799 O   0  0  0  0  0  0  0  0  0  0  0  0
    5.5186   -0.4016   -2.1855 C   0  0  0  0  0  0  0  0  0  0  0  0
    4.9936    0.8041   -2.9572 C   0  0  0  0  0  0  0  0  0  0  0  0
    5.4344    2.1805   -2.4473 C   0  0  0  0  0  0  0  0  0  0  0  0
    1.3490    5.0408    1.8271 H   0  0  0  0  0  0  0  0  0  0  0  0
    2.7113    4.4095    2.7684 H   0  0  0  0  0  0  0  0  0  0  0  0
    1.2851    3.3928    2.4754 H   0  0  0  0  0  0  0  0  0  0  0  0
    3.2111    4.4272    0.3375 H   0  0  0  0  0  0  0  0  0  0  0  0
    1.7862    3.4356    0.0165 H   0  0  0  0  0  0  0  0  0  0  0  0
    2.7363    1.6063    1.4349 H   0  0  0  0  0  0  0  0  0  0  0  0
    4.1821    2.5469    1.7151 H   0  0  0  0  0  0  0  0  0  0  0  0
    3.1223    1.6271   -1.0088 H   0  0  0  0  0  0  0  0  0  0  0  0
    4.3337    0.7957   -0.0720 H   0  0  0  0  0  0  0  0  0  0  0  0
    4.5658    3.6084   -1.1819 H   0  0  0  0  0  0  0  0  0  0  0  0
    5.9566    3.3248    0.8355 H   0  0  0  0  0  0  0  0  0  0  0  0
    6.7479    3.8609   -0.6078 H   0  0  0  0  0  0  0  0  0  0  0  0
    8.1020    2.3968    0.7611 H   0  0  0  0  0  0  0  0  0  0  0  0
    7.9929    1.8636   -0.8868 H   0  0  0  0  0  0  0  0  0  0  0  0
    6.0208    0.5901    1.0154 H   0  0  0  0  0  0  0  0  0  0  0  0
    7.6765    0.3243    1.4141 H   0  0  0  0  0  0  0  0  0  0  0  0
    6.5559   -1.4394   -0.1408 H   0  0  0  0  0  0  0  0  0  0  0  0
    8.1938   -0.8925   -0.4527 H   0  0  0  0  0  0  0  0  0  0  0  0
    4.8640   -0.6515   -1.3478 H   0  0  0  0  0  0  0  0  0  0  0  0
    5.5146   -1.2780   -2.8436 H   0  0  0  0  0  0  0  0  0  0  0  0
    3.9017    0.7492   -3.0367 H   0  0  0  0  0  0  0  0  0  0  0  0
    5.3651    0.7236   -3.9891 H   0  0  0  0  0  0  0  0  0  0  0  0
    5.0027    2.9147   -3.1441 H   0  0  0  0  0  0  0  0  0  0  0  0
    6.5160    2.2859   -2.5982 H   0  0  0  0  0  0  0  0  0  0  0  0
  1  2  1  0  0  0  0
  1 14  1  0  0  0  0
  1 15  1  0  0  0  0
  1 16  1  0  0  0  0
  2  3  1  0  0  0  0
  2 17  1  0  0  0  0
  2 18  1  0  0  0  0
  3  4  1  0  0  0  0
  3 19  1  0  0  0  0
  3 20  1  0  0  0  0
  4  5  1  0  0  0  0
  4 21  1  0  0  0  0
  4 22  1  0  0  0  0
  5  6  1  0  0  0  0
  5 13  1  0  0  0  0
  5 23  1  0  0  0  0
  6  7  1  0  0  0  0
  6 24  1  0  0  0  0
  6 25  1  0  0  0  0
  7  8  1  0  0  0  0
  7 26  1  0  0  0  0
  7 27  1  0  0  0  0
  8  9  1  0  0  0  0
  8 28  1  0  0  0  0
  8 29  1  0  0  0  0
  9 10  1  0  0  0  0
  9 30  1  0  0  0  0
  9 31  1  0  0  0  0
 10 11  1  0  0  0  0
 11 12  1  0  0  0  0
 11 32  1  0  0  0  0
 11 33  1  0  0  0  0
 12 13  1  0  0  0  0
 12 34  1  0  0  0  0
 12 35  1  0  0  0  0
 13 36  1  0  0  0  0
 13 37  1  0  0  0  0
M  END
$$$$
