
 OpenBabel04232216473D

220220  0  0  1  0  0  0  0  0999 V2000
    2.7415    2.6422    4.0167 C   0  0  0  0  0  0  0  0  0  0  0  0
    1.6429    1.6123    3.8374 C   0  0  3  0  0  0  0  0  0  0  0  0
    0.6932    1.3063    4.9843 C   0  0  0  0  0  0  0  0  0  0  0  0
   -0.3929    1.7096    4.3216 C   0  0  0  0  0  0  0  0  0  0  0  0
    0.3433    1.8001    2.9833 C   0  0  0  0  0  0  0  0  0  0  0  0
    0.2850    0.5552    2.0889 C   0  0  0  0  0  0  0  0  0  0  0  0
    0.0329    3.0777    2.2494 C   0  0  0  0  0  0  0  0  0  0  0  0
    0.8404    3.4826    1.0487 C   0  0  0  0  0  0  0  0  0  0  0  0
    0.9138    4.9624    0.8300 C   0  0  0  0  0  0  0  0  0  0  0  0
    2.1029    5.6245    0.8191 C   0  0  0  0  0  0  0  0  0  0  0  0
    2.2329    7.0969    0.5922 C   0  0  0  0  0  0  0  0  0  0  0  0
    1.4908    7.9216    1.6353 C   0  0  0  0  0  0  0  0  0  0  0  0
    1.6622    9.4131    1.3750 C   0  0  0  0  0  0  0  0  0  0  0  0
    0.9095   10.2256    2.4187 C   0  0  0  0  0  0  0  0  0  0  0  0
    1.0817   11.7143    2.1600 C   0  0  0  0  0  0  0  0  0  0  0  0
    0.3269   12.5146    3.2085 C   0  0  0  0  0  0  0  0  0  0  0  0
    0.4980   14.0022    2.9543 C   0  0  0  0  0  0  0  0  0  0  0  0
   -0.2569   14.8010    4.0015 C   0  0  0  0  0  0  0  0  0  0  0  0
   -0.0846   16.2871    3.7439 C   0  0  0  0  0  0  0  0  0  0  0  0
   -0.8371   17.0871    4.7914 C   0  0  0  0  0  0  0  0  0  0  0  0
   -0.6627   18.5723    4.5317 C   0  0  0  0  0  0  0  0  0  0  0  0
   -1.4164   19.3715    5.5777 C   0  0  0  0  0  0  0  0  0  0  0  0
   -1.2406   20.8554    5.3179 C   0  0  0  0  0  0  0  0  0  0  0  0
   -1.9948   21.6526    6.3646 C   0  0  0  0  0  0  0  0  0  0  0  0
   -1.8180   23.1363    6.1064 C   0  0  0  0  0  0  0  0  0  0  0  0
   -2.5723   23.9332    7.1531 C   0  0  0  0  0  0  0  0  0  0  0  0
   -2.3955   25.4170    6.8951 C   0  0  0  0  0  0  0  0  0  0  0  0
   -3.1497   26.2140    7.9417 C   0  0  0  0  0  0  0  0  0  0  0  0
   -2.9715   27.6980    7.6850 C   0  0  0  0  0  0  0  0  0  0  0  0
   -3.7273   28.4952    8.7305 C   0  0  0  0  0  0  0  0  0  0  0  0
   -3.5475   29.9792    8.4750 C   0  0  0  0  0  0  0  0  0  0  0  0
   -4.3033   30.7765    9.5205 C   0  0  0  0  0  0  0  0  0  0  0  0
   -4.1218   32.2606    9.2662 C   0  0  0  0  0  0  0  0  0  0  0  0
   -4.8760   33.0579   10.3129 C   0  0  0  0  0  0  0  0  0  0  0  0
   -4.6962   34.5420   10.0574 C   0  0  0  0  0  0  0  0  0  0  0  0
   -5.4488   35.3394   11.1053 C   0  0  0  0  0  0  0  0  0  0  0  0
   -5.2706   36.8235   10.8487 C   0  0  0  0  0  0  0  0  0  0  0  0
   -6.0215   37.6208   11.8977 C   0  0  0  0  0  0  0  0  0  0  0  0
   -5.8433   39.1050   11.6411 C   0  0  0  0  0  0  0  0  0  0  0  0
   -6.5927   39.9023   12.6913 C   0  0  0  0  0  0  0  0  0  0  0  0
   -6.4144   41.3864   12.4347 C   0  0  0  0  0  0  0  0  0  0  0  0
   -7.1637   42.1838   13.4849 C   0  0  0  0  0  0  0  0  0  0  0  0
   -6.9839   43.6679   13.2294 C   0  0  0  0  0  0  0  0  0  0  0  0
   -7.7332   44.4653   14.2797 C   0  0  0  0  0  0  0  0  0  0  0  0
   -7.5533   45.9494   14.0242 C   0  0  0  0  0  0  0  0  0  0  0  0
   -8.3026   46.7467   15.0744 C   0  0  0  0  0  0  0  0  0  0  0  0
   -8.1228   48.2309   14.8189 C   0  0  0  0  0  0  0  0  0  0  0  0
   -8.8721   49.0282   15.8692 C   0  0  0  0  0  0  0  0  0  0  0  0
   -8.6922   50.5123   15.6137 C   0  0  0  0  0  0  0  0  0  0  0  0
   -9.4399   51.3097   16.6651 C   0  0  0  0  0  0  0  0  0  0  0  0
   -9.2600   52.7938   16.4096 C   0  0  0  0  0  0  0  0  0  0  0  0
  -10.0077   53.5912   17.4610 C   0  0  0  0  0  0  0  0  0  0  0  0
   -9.8279   55.0753   17.2056 C   0  0  0  0  0  0  0  0  0  0  0  0
  -10.5772   55.8727   18.2558 C   0  0  0  0  0  0  0  0  0  0  0  0
  -10.3957   57.3568   18.0015 C   0  0  0  0  0  0  0  0  0  0  0  0
  -11.1466   58.1542   19.0506 C   0  0  0  0  0  0  0  0  0  0  0  0
  -10.9652   59.6383   18.7963 C   0  0  0  0  0  0  0  0  0  0  0  0
  -11.7177   60.4360   19.8440 C   0  0  0  0  0  0  0  0  0  0  0  0
  -11.5376   61.9201   19.5885 C   0  0  0  0  0  0  0  0  0  0  0  0
  -12.2887   62.7175   20.6373 C   0  0  0  0  0  0  0  0  0  0  0  0
  -12.1073   64.2014   20.3830 C   0  0  0  0  0  0  0  0  0  0  0  0
  -12.8598   64.9982   21.4312 C   0  0  0  0  0  0  0  0  0  0  0  0
  -12.6798   66.4821   21.1755 C   0  0  0  0  0  0  0  0  0  0  0  0
  -13.4306   67.2793   22.2245 C   0  0  0  0  0  0  0  0  0  0  0  0
  -13.2528   68.7634   21.9675 C   0  0  0  0  0  0  0  0  0  0  0  0
  -14.0002   69.5601   23.0199 C   0  0  0  0  0  0  0  0  0  0  0  0
  -13.8242   71.0452   22.7654 C   0  0  0  0  0  0  0  0  0  0  0  0
  -14.5727   71.8425   23.8182 C   0  0  0  0  0  0  0  0  0  0  0  0
  -14.3952   73.3285   23.5627 C   0  0  0  0  0  0  0  0  0  0  0  0
  -15.1439   74.1326   24.6113 C   0  0  0  0  0  0  0  0  0  0  0  0
  -14.9671   75.6203   24.3576 C   0  0  0  0  0  0  0  0  0  0  0  0
  -15.7186   76.4262   25.4061 C   0  0  0  0  0  0  0  0  0  0  0  0
  -15.5438   77.9172   25.1562 C   0  0  0  0  0  0  0  0  0  0  0  0
  -16.2925   78.7314   26.2039 C   0  0  0  0  0  0  0  0  0  0  0  0
  -16.1169   80.2169   25.9515 C   0  0  0  0  0  0  0  0  0  0  0  0
    3.6634    2.1312    4.3240 H   0  0  0  0  0  0  0  0  0  0  0  0
    2.5146    3.4067    4.7629 H   0  0  0  0  0  0  0  0  0  0  0  0
    2.9760    3.1300    3.0676 H   0  0  0  0  0  0  0  0  0  0  0  0
    2.2039    0.7172    3.5192 H   0  0  0  0  0  0  0  0  0  0  0  0
    0.8396    0.8848    5.9858 H   0  0  0  0  0  0  0  0  0  0  0  0
   -1.4501    1.7715    4.5993 H   0  0  0  0  0  0  0  0  0  0  0  0
    0.4101   -0.3626    2.6827 H   0  0  0  0  0  0  0  0  0  0  0  0
    1.1235    0.5780    1.3807 H   0  0  0  0  0  0  0  0  0  0  0  0
   -0.6503    0.4709    1.5360 H   0  0  0  0  0  0  0  0  0  0  0  0
   -0.9940    3.4425    2.3116 H   0  0  0  0  0  0  0  0  0  0  0  0
    0.4148    3.0266    0.1451 H   0  0  0  0  0  0  0  0  0  0  0  0
    1.8471    3.0785    1.1633 H   0  0  0  0  0  0  0  0  0  0  0  0
    0.0089    5.5169    0.6248 H   0  0  0  0  0  0  0  0  0  0  0  0
    3.0084    5.0607    0.9956 H   0  0  0  0  0  0  0  0  0  0  0  0
    1.8723    7.3457   -0.4136 H   0  0  0  0  0  0  0  0  0  0  0  0
    3.3012    7.3576    0.6129 H   0  0  0  0  0  0  0  0  0  0  0  0
    1.8613    7.6774    2.6386 H   0  0  0  0  0  0  0  0  0  0  0  0
    0.4229    7.6741    1.6176 H   0  0  0  0  0  0  0  0  0  0  0  0
    1.2890    9.6646    0.3743 H   0  0  0  0  0  0  0  0  0  0  0  0
    2.7264    9.6774    1.4003 H   0  0  0  0  0  0  0  0  0  0  0  0
    1.2797    9.9809    3.4218 H   0  0  0  0  0  0  0  0  0  0  0  0
   -0.1568    9.9688    2.3957 H   0  0  0  0  0  0  0  0  0  0  0  0
    0.7084   11.9671    1.1600 H   0  0  0  0  0  0  0  0  0  0  0  0
    2.1459   11.9791    2.1853 H   0  0  0  0  0  0  0  0  0  0  0  0
    0.6982   12.2632    4.2096 H   0  0  0  0  0  0  0  0  0  0  0  0
   -0.7379   12.2521    3.1826 H   0  0  0  0  0  0  0  0  0  0  0  0
    0.1246   14.2543    1.9538 H   0  0  0  0  0  0  0  0  0  0  0  0
    1.5624   14.2663    2.9805 H   0  0  0  0  0  0  0  0  0  0  0  0
    0.1144   14.5515    5.0030 H   0  0  0  0  0  0  0  0  0  0  0  0
   -1.3211   14.5360    3.9733 H   0  0  0  0  0  0  0  0  0  0  0  0
   -0.4571   16.5391    2.7434 H   0  0  0  0  0  0  0  0  0  0  0  0
    0.9801   16.5508    3.7688 H   0  0  0  0  0  0  0  0  0  0  0  0
   -0.4650   16.8369    5.7931 H   0  0  0  0  0  0  0  0  0  0  0  0
   -1.9025   16.8266    4.7662 H   0  0  0  0  0  0  0  0  0  0  0  0
   -1.0348   18.8233    3.5307 H   0  0  0  0  0  0  0  0  0  0  0  0
    0.4022   18.8346    4.5568 H   0  0  0  0  0  0  0  0  0  0  0  0
   -1.0454   19.1210    6.5792 H   0  0  0  0  0  0  0  0  0  0  0  0
   -2.4817   19.1112    5.5516 H   0  0  0  0  0  0  0  0  0  0  0  0
   -1.6117   21.1071    4.3167 H   0  0  0  0  0  0  0  0  0  0  0  0
   -0.1755   21.1168    5.3445 H   0  0  0  0  0  0  0  0  0  0  0  0
   -1.6245   21.4003    7.3659 H   0  0  0  0  0  0  0  0  0  0  0  0
   -3.0602   21.3924    6.3374 H   0  0  0  0  0  0  0  0  0  0  0  0
   -2.1883   23.3888    5.1051 H   0  0  0  0  0  0  0  0  0  0  0  0
   -0.7527   23.3966    6.1337 H   0  0  0  0  0  0  0  0  0  0  0  0
   -2.2019   23.6806    8.1544 H   0  0  0  0  0  0  0  0  0  0  0  0
   -3.6376   23.6728    7.1258 H   0  0  0  0  0  0  0  0  0  0  0  0
   -2.7658   25.6694    5.8938 H   0  0  0  0  0  0  0  0  0  0  0  0
   -1.3301   25.6772    6.9223 H   0  0  0  0  0  0  0  0  0  0  0  0
   -2.7804   25.9605    8.9431 H   0  0  0  0  0  0  0  0  0  0  0  0
   -4.2153   25.9546    7.9135 H   0  0  0  0  0  0  0  0  0  0  0  0
   -3.3395   27.9512    6.6831 H   0  0  0  0  0  0  0  0  0  0  0  0
   -1.9060   27.9574    7.7146 H   0  0  0  0  0  0  0  0  0  0  0  0
   -3.3603   28.2408    9.7325 H   0  0  0  0  0  0  0  0  0  0  0  0
   -4.7930   28.2366    8.6999 H   0  0  0  0  0  0  0  0  0  0  0  0
   -3.9144   30.2335    7.4730 H   0  0  0  0  0  0  0  0  0  0  0  0
   -2.4817   30.2376    8.5056 H   0  0  0  0  0  0  0  0  0  0  0  0
   -3.9372   30.5211   10.5226 H   0  0  0  0  0  0  0  0  0  0  0  0
   -5.3692   30.5191    9.4889 H   0  0  0  0  0  0  0  0  0  0  0  0
   -4.4891   32.5162    8.2646 H   0  0  0  0  0  0  0  0  0  0  0  0
   -3.0558   32.5178    9.2964 H   0  0  0  0  0  0  0  0  0  0  0  0
   -4.5077   32.8033   11.3143 H   0  0  0  0  0  0  0  0  0  0  0  0
   -5.9418   32.7998   10.2837 H   0  0  0  0  0  0  0  0  0  0  0  0
   -5.0658   34.7968    9.0565 H   0  0  0  0  0  0  0  0  0  0  0  0
   -3.6303   34.8000   10.0852 H   0  0  0  0  0  0  0  0  0  0  0  0
   -5.0781   35.0856   12.1061 H   0  0  0  0  0  0  0  0  0  0  0  0
   -6.5145   35.0804   11.0785 H   0  0  0  0  0  0  0  0  0  0  0  0
   -5.6425   37.0775    9.8484 H   0  0  0  0  0  0  0  0  0  0  0  0
   -4.2048   37.0822   10.8741 H   0  0  0  0  0  0  0  0  0  0  0  0
   -5.6495   37.3668   12.8980 H   0  0  0  0  0  0  0  0  0  0  0  0
   -7.0873   37.3621   11.8724 H   0  0  0  0  0  0  0  0  0  0  0  0
   -6.2166   39.3592   10.6414 H   0  0  0  0  0  0  0  0  0  0  0  0
   -4.7775   39.3635   11.6651 H   0  0  0  0  0  0  0  0  0  0  0  0
   -6.2193   39.6480   13.6910 H   0  0  0  0  0  0  0  0  0  0  0  0
   -7.6585   39.6438   12.6674 H   0  0  0  0  0  0  0  0  0  0  0  0
   -6.7877   41.6408   11.4350 H   0  0  0  0  0  0  0  0  0  0  0  0
   -5.3486   41.6449   12.4586 H   0  0  0  0  0  0  0  0  0  0  0  0
   -6.7914   41.9285   14.4847 H   0  0  0  0  0  0  0  0  0  0  0  0
   -8.2298   41.9263   13.4600 H   0  0  0  0  0  0  0  0  0  0  0  0
   -7.3562   43.9232   12.2296 H   0  0  0  0  0  0  0  0  0  0  0  0
   -5.9178   43.9253   13.2543 H   0  0  0  0  0  0  0  0  0  0  0  0
   -7.3608   44.2099   15.2794 H   0  0  0  0  0  0  0  0  0  0  0  0
   -8.7993   44.2078   14.2548 H   0  0  0  0  0  0  0  0  0  0  0  0
   -7.9257   46.2047   13.0244 H   0  0  0  0  0  0  0  0  0  0  0  0
   -6.4873   46.2068   14.0491 H   0  0  0  0  0  0  0  0  0  0  0  0
   -7.9303   46.4914   16.0742 H   0  0  0  0  0  0  0  0  0  0  0  0
   -9.3687   46.4893   15.0495 H   0  0  0  0  0  0  0  0  0  0  0  0
   -8.4951   48.4862   13.8191 H   0  0  0  0  0  0  0  0  0  0  0  0
   -7.0567   48.4883   14.8439 H   0  0  0  0  0  0  0  0  0  0  0  0
   -8.4998   48.7728   16.8689 H   0  0  0  0  0  0  0  0  0  0  0  0
   -9.9382   48.7708   15.8443 H   0  0  0  0  0  0  0  0  0  0  0  0
   -9.0659   50.7679   14.6145 H   0  0  0  0  0  0  0  0  0  0  0  0
   -7.6261   50.7695   15.6372 H   0  0  0  0  0  0  0  0  0  0  0  0
   -9.0663   51.0541   17.6643 H   0  0  0  0  0  0  0  0  0  0  0  0
  -10.5061   51.0525   16.6416 H   0  0  0  0  0  0  0  0  0  0  0  0
   -9.6337   53.0494   15.4104 H   0  0  0  0  0  0  0  0  0  0  0  0
   -8.1939   53.0510   16.4331 H   0  0  0  0  0  0  0  0  0  0  0  0
   -9.6341   53.3356   18.4603 H   0  0  0  0  0  0  0  0  0  0  0  0
  -11.0739   53.3340   17.4375 H   0  0  0  0  0  0  0  0  0  0  0  0
  -10.2002   55.3307   16.2058 H   0  0  0  0  0  0  0  0  0  0  0  0
   -8.7618   55.3326   17.2304 H   0  0  0  0  0  0  0  0  0  0  0  0
  -10.2059   55.6163   19.2557 H   0  0  0  0  0  0  0  0  0  0  0  0
  -11.6435   55.6162   18.2299 H   0  0  0  0  0  0  0  0  0  0  0  0
  -10.7657   57.6130   17.0011 H   0  0  0  0  0  0  0  0  0  0  0  0
   -9.3295   57.6134   18.0288 H   0  0  0  0  0  0  0  0  0  0  0  0
  -10.7767   57.8981   20.0510 H   0  0  0  0  0  0  0  0  0  0  0  0
  -12.2128   57.8976   19.0232 H   0  0  0  0  0  0  0  0  0  0  0  0
  -11.3339   59.8942   17.7953 H   0  0  0  0  0  0  0  0  0  0  0  0
   -9.8991   59.8952   18.8250 H   0  0  0  0  0  0  0  0  0  0  0  0
  -11.3481   60.1811   20.8450 H   0  0  0  0  0  0  0  0  0  0  0  0
  -12.7837   60.1783   19.8163 H   0  0  0  0  0  0  0  0  0  0  0  0
  -11.9083   62.1752   18.5880 H   0  0  0  0  0  0  0  0  0  0  0  0
  -10.4716   62.1777   19.6151 H   0  0  0  0  0  0  0  0  0  0  0  0
  -11.9186   62.4618   21.6378 H   0  0  0  0  0  0  0  0  0  0  0  0
  -13.3548   62.4609   20.6099 H   0  0  0  0  0  0  0  0  0  0  0  0
  -12.4761   64.4574   19.3819 H   0  0  0  0  0  0  0  0  0  0  0  0
  -11.0411   64.4584   20.4116 H   0  0  0  0  0  0  0  0  0  0  0  0
  -12.4901   64.7431   22.4320 H   0  0  0  0  0  0  0  0  0  0  0  0
  -13.9257   64.7404   21.4034 H   0  0  0  0  0  0  0  0  0  0  0  0
  -13.0512   66.7368   20.1752 H   0  0  0  0  0  0  0  0  0  0  0  0
  -11.6138   66.7399   21.2014 H   0  0  0  0  0  0  0  0  0  0  0  0
  -13.0587   67.0254   23.2247 H   0  0  0  0  0  0  0  0  0  0  0  0
  -14.4964   67.0206   22.1992 H   0  0  0  0  0  0  0  0  0  0  0  0
  -13.6284   69.0177   20.9686 H   0  0  0  0  0  0  0  0  0  0  0  0
  -12.1867   69.0218   21.9886 H   0  0  0  0  0  0  0  0  0  0  0  0
  -13.6246   69.3047   24.0184 H   0  0  0  0  0  0  0  0  0  0  0  0
  -15.0660   69.3007   22.9979 H   0  0  0  0  0  0  0  0  0  0  0  0
  -14.1991   71.2996   21.7663 H   0  0  0  0  0  0  0  0  0  0  0  0
  -12.7583   71.3039   22.7874 H   0  0  0  0  0  0  0  0  0  0  0  0
  -14.1980   71.5860   24.8168 H   0  0  0  0  0  0  0  0  0  0  0  0
  -15.6382   71.5827   23.7946 H   0  0  0  0  0  0  0  0  0  0  0  0
  -14.7683   73.5795   22.5621 H   0  0  0  0  0  0  0  0  0  0  0  0
  -13.3287   73.5844   23.5851 H   0  0  0  0  0  0  0  0  0  0  0  0
  -14.7719   73.8776   25.6111 H   0  0  0  0  0  0  0  0  0  0  0  0
  -16.2097   73.8742   24.5859 H   0  0  0  0  0  0  0  0  0  0  0  0
  -15.3349   75.8735   23.3558 H   0  0  0  0  0  0  0  0  0  0  0  0
  -13.8996   75.8763   24.3841 H   0  0  0  0  0  0  0  0  0  0  0  0
  -15.3476   76.1698   26.4061 H   0  0  0  0  0  0  0  0  0  0  0  0
  -16.7840   76.1653   25.3784 H   0  0  0  0  0  0  0  0  0  0  0  0
  -15.9139   78.1687   24.1548 H   0  0  0  0  0  0  0  0  0  0  0  0
  -14.4770   78.1714   25.1801 H   0  0  0  0  0  0  0  0  0  0  0  0
  -15.9212   78.4830   27.2051 H   0  0  0  0  0  0  0  0  0  0  0  0
  -17.3592   78.4789   26.1806 H   0  0  0  0  0  0  0  0  0  0  0  0
  -15.0591   80.4953   25.9948 H   0  0  0  0  0  0  0  0  0  0  0  0
  -16.6563   80.7962   26.7057 H   0  0  0  0  0  0  0  0  0  0  0  0
  -16.5036   80.4911   24.9649 H   0  0  0  0  0  0  0  0  0  0  0  0
  1  2  1  0  0  0  0
  1 76  1  0  0  0  0
  1 77  1  0  0  0  0
  1 78  1  0  0  0  0
  2  3  1  0  0  0  0
  2  5  1  0  0  0  0
  2 79  1  0  0  0  0
  3  4  2  0  0  0  0
  3 80  1  0  0  0  0
  4  5  1  0  0  0  0
  4 81  1  0  0  0  0
  5  6  1  0  0  0  0
  5  7  2  0  0  0  0
  6 82  1  0  0  0  0
  6 83  1  0  0  0  0
  6 84  1  0  0  0  0
  7  8  1  0  0  0  0
  7 85  1  0  0  0  0
  8  9  1  0  0  0  0
  8 86  1  0  0  0  0
  8 87  1  0  0  0  0
  9 10  2  3  0  0  0
  9 88  1  0  0  0  0
 10 11  1  0  0  0  0
 10 89  1  0  0  0  0
 11 12  1  0  0  0  0
 11 90  1  0  0  0  0
 11 91  1  0  0  0  0
 12 13  1  0  0  0  0
 12 92  1  0  0  0  0
 12 93  1  0  0  0  0
 13 14  1  0  0  0  0
 13 94  1  0  0  0  0
 13 95  1  0  0  0  0
 14 15  1  0  0  0  0
 14 96  1  0  0  0  0
 14 97  1  0  0  0  0
 15 16  1  0  0  0  0
 15 98  1  0  0  0  0
 15 99  1  0  0  0  0
 16 17  1  0  0  0  0
 16100  1  0  0  0  0
 16101  1  0  0  0  0
 17 18  1  0  0  0  0
 17102  1  0  0  0  0
 17103  1  0  0  0  0
 18 19  1  0  0  0  0
 18104  1  0  0  0  0
 18105  1  0  0  0  0
 19 20  1  0  0  0  0
 19106  1  0  0  0  0
 19107  1  0  0  0  0
 20 21  1  0  0  0  0
 20108  1  0  0  0  0
 20109  1  0  0  0  0
 21 22  1  0  0  0  0
 21110  1  0  0  0  0
 21111  1  0  0  0  0
 22 23  1  0  0  0  0
 22112  1  0  0  0  0
 22113  1  0  0  0  0
 23 24  1  0  0  0  0
 23114  1  0  0  0  0
 23115  1  0  0  0  0
 24 25  1  0  0  0  0
 24116  1  0  0  0  0
 24117  1  0  0  0  0
 25 26  1  0  0  0  0
 25118  1  0  0  0  0
 25119  1  0  0  0  0
 26 27  1  0  0  0  0
 26120  1  0  0  0  0
 26121  1  0  0  0  0
 27 28  1  0  0  0  0
 27122  1  0  0  0  0
 27123  1  0  0  0  0
 28 29  1  0  0  0  0
 28124  1  0  0  0  0
 28125  1  0  0  0  0
 29 30  1  0  0  0  0
 29126  1  0  0  0  0
 29127  1  0  0  0  0
 30 31  1  0  0  0  0
 30128  1  0  0  0  0
 30129  1  0  0  0  0
 31 32  1  0  0  0  0
 31130  1  0  0  0  0
 31131  1  0  0  0  0
 32 33  1  0  0  0  0
 32132  1  0  0  0  0
 32133  1  0  0  0  0
 33 34  1  0  0  0  0
 33134  1  0  0  0  0
 33135  1  0  0  0  0
 34 35  1  0  0  0  0
 34136  1  0  0  0  0
 34137  1  0  0  0  0
 35 36  1  0  0  0  0
 35138  1  0  0  0  0
 35139  1  0  0  0  0
 36 37  1  0  0  0  0
 36140  1  0  0  0  0
 36141  1  0  0  0  0
 37 38  1  0  0  0  0
 37142  1  0  0  0  0
 37143  1  0  0  0  0
 38 39  1  0  0  0  0
 38144  1  0  0  0  0
 38145  1  0  0  0  0
 39 40  1  0  0  0  0
 39146  1  0  0  0  0
 39147  1  0  0  0  0
 40 41  1  0  0  0  0
 40148  1  0  0  0  0
 40149  1  0  0  0  0
 41 42  1  0  0  0  0
 41150  1  0  0  0  0
 41151  1  0  0  0  0
 42 43  1  0  0  0  0
 42152  1  0  0  0  0
 42153  1  0  0  0  0
 43 44  1  0  0  0  0
 43154  1  0  0  0  0
 43155  1  0  0  0  0
 44 45  1  0  0  0  0
 44156  1  0  0  0  0
 44157  1  0  0  0  0
 45 46  1  0  0  0  0
 45158  1  0  0  0  0
 45159  1  0  0  0  0
 46 47  1  0  0  0  0
 46160  1  0  0  0  0
 46161  1  0  0  0  0
 47 48  1  0  0  0  0
 47162  1  0  0  0  0
 47163  1  0  0  0  0
 48 49  1  0  0  0  0
 48164  1  0  0  0  0
 48165  1  0  0  0  0
 49 50  1  0  0  0  0
 49166  1  0  0  0  0
 49167  1  0  0  0  0
 50 51  1  0  0  0  0
 50168  1  0  0  0  0
 50169  1  0  0  0  0
 51 52  1  0  0  0  0
 51170  1  0  0  0  0
 51171  1  0  0  0  0
 52 53  1  0  0  0  0
 52172  1  0  0  0  0
 52173  1  0  0  0  0
 53 54  1  0  0  0  0
 53174  1  0  0  0  0
 53175  1  0  0  0  0
 54 55  1  0  0  0  0
 54176  1  0  0  0  0
 54177  1  0  0  0  0
 55 56  1  0  0  0  0
 55178  1  0  0  0  0
 55179  1  0  0  0  0
 56 57  1  0  0  0  0
 56180  1  0  0  0  0
 56181  1  0  0  0  0
 57 58  1  0  0  0  0
 57182  1  0  0  0  0
 57183  1  0  0  0  0
 58 59  1  0  0  0  0
 58184  1  0  0  0  0
 58185  1  0  0  0  0
 59 60  1  0  0  0  0
 59186  1  0  0  0  0
 59187  1  0  0  0  0
 60 61  1  0  0  0  0
 60188  1  0  0  0  0
 60189  1  0  0  0  0
 61 62  1  0  0  0  0
 61190  1  0  0  0  0
 61191  1  0  0  0  0
 62 63  1  0  0  0  0
 62192  1  0  0  0  0
 62193  1  0  0  0  0
 63 64  1  0  0  0  0
 63194  1  0  0  0  0
 63195  1  0  0  0  0
 64 65  1  0  0  0  0
 64196  1  0  0  0  0
 64197  1  0  0  0  0
 65 66  1  0  0  0  0
 65198  1  0  0  0  0
 65199  1  0  0  0  0
 66 67  1  0  0  0  0
 66200  1  0  0  0  0
 66201  1  0  0  0  0
 67 68  1  0  0  0  0
 67202  1  0  0  0  0
 67203  1  0  0  0  0
 68 69  1  0  0  0  0
 68204  1  0  0  0  0
 68205  1  0  0  0  0
 69 70  1  0  0  0  0
 69206  1  0  0  0  0
 69207  1  0  0  0  0
 70 71  1  0  0  0  0
 70208  1  0  0  0  0
 70209  1  0  0  0  0
 71 72  1  0  0  0  0
 71210  1  0  0  0  0
 71211  1  0  0  0  0
 72 73  1  0  0  0  0
 72212  1  0  0  0  0
 72213  1  0  0  0  0
 73 74  1  0  0  0  0
 73214  1  0  0  0  0
 73215  1  0  0  0  0
 74 75  1  0  0  0  0
 74216  1  0  0  0  0
 74217  1  0  0  0  0
 75218  1  0  0  0  0
 75219  1  0  0  0  0
 75220  1  0  0  0  0
M  END
$$$$
