
 OpenBabel04232216443D

 47 49  0  0  0  0  0  0  0  0999 V2000
    1.6315   -1.0466   -1.6032 C   0  0  0  0  0  0  0  0  0  0  0  0
    3.1075   -0.7120   -1.9836 C   0  0  0  0  0  0  0  0  0  0  0  0
    3.7892   -0.0304   -0.6505 C   0  0  0  0  0  0  0  0  0  0  0  0
    3.3146   -0.2893    0.5954 C   0  0  0  0  0  0  0  0  0  0  0  0
    3.9060    0.5632    1.6117 C   0  0  0  0  0  0  0  0  0  0  0  0
    4.8247    1.3740    1.0602 C   0  0  0  0  0  0  0  0  0  0  0  0
    5.5769    2.4466    1.7834 C   0  0  0  0  0  0  0  0  0  0  0  0
    4.7456    1.1187   -0.3874 C   0  0  0  0  0  0  0  0  0  0  0  0
    5.3482    1.8777   -1.3167 C   0  0  0  0  0  0  0  0  0  0  0  0
    6.5138    2.8214   -1.2356 C   0  0  0  0  0  0  0  0  0  0  0  0
    4.8687    1.6683   -2.6460 C   0  0  0  0  0  0  0  0  0  0  0  0
    3.4667    2.1604   -2.9577 C   0  0  0  0  0  0  0  0  0  0  0  0
    5.6021    0.7599   -3.2880 C   0  0  0  0  0  0  0  0  0  0  0  0
    5.1637    0.0948   -4.4494 C   0  0  0  0  0  0  0  0  0  0  0  0
    5.8221    0.5178   -5.6539 C   0  0  0  0  0  0  0  0  0  0  0  0
    5.1962    1.2462   -6.6008 C   0  0  0  0  0  0  0  0  0  0  0  0
    5.6736    1.1358   -7.9670 C   0  0  0  0  0  0  0  0  0  0  0  0
    4.6923    0.7695   -8.8067 C   0  0  0  0  0  0  0  0  0  0  0  0
    4.5209   -0.6389   -9.1127 C   0  0  0  0  0  0  0  0  0  0  0  0
    4.3668   -1.6566   -8.2321 C   0  0  0  0  0  0  0  0  0  0  0  0
    4.4981   -1.8061   -6.7416 C   0  0  0  0  0  0  0  0  0  0  0  0
    3.6599   -1.4648   -5.7170 C   0  0  0  0  0  0  0  0  0  0  0  0
    4.1361   -0.7938   -4.3690 C   0  0  0  0  0  0  0  0  0  0  0  0
    3.2721   -1.0085   -3.2591 N   0  0  0  0  0  0  0  0  0  0  0  0
    1.2274   -0.2675   -0.9445 H   0  0  0  0  0  0  0  0  0  0  0  0
    1.5639   -2.0171   -1.1059 H   0  0  0  0  0  0  0  0  0  0  0  0
    0.9908   -1.0400   -2.4895 H   0  0  0  0  0  0  0  0  0  0  0  0
    2.5115   -0.9628    0.8835 H   0  0  0  0  0  0  0  0  0  0  0  0
    3.5969    0.6030    2.6510 H   0  0  0  0  0  0  0  0  0  0  0  0
    5.2805    2.5283    2.8355 H   0  0  0  0  0  0  0  0  0  0  0  0
    5.3942    3.4343    1.3437 H   0  0  0  0  0  0  0  0  0  0  0  0
    6.6545    2.2459    1.7748 H   0  0  0  0  0  0  0  0  0  0  0  0
    6.7724    3.1660   -0.2408 H   0  0  0  0  0  0  0  0  0  0  0  0
    6.3485    3.7039   -1.8601 H   0  0  0  0  0  0  0  0  0  0  0  0
    7.4104    2.3102   -1.6158 H   0  0  0  0  0  0  0  0  0  0  0  0
    3.0242    2.6825   -2.0981 H   0  0  0  0  0  0  0  0  0  0  0  0
    2.7548    1.3620   -3.1808 H   0  0  0  0  0  0  0  0  0  0  0  0
    3.4555    2.8302   -3.8155 H   0  0  0  0  0  0  0  0  0  0  0  0
    6.5655    0.4161   -2.9127 H   0  0  0  0  0  0  0  0  0  0  0  0
    6.8289    0.1347   -5.8069 H   0  0  0  0  0  0  0  0  0  0  0  0
    4.1558    1.5354   -6.4437 H   0  0  0  0  0  0  0  0  0  0  0  0
    6.6384    0.6293   -8.0433 H   0  0  0  0  0  0  0  0  0  0  0  0
    3.7301    1.2839   -8.7812 H   0  0  0  0  0  0  0  0  0  0  0  0
    4.4536   -0.8465  -10.1815 H   0  0  0  0  0  0  0  0  0  0  0  0
    4.2592   -2.6357   -8.7215 H   0  0  0  0  0  0  0  0  0  0  0  0
    4.8841   -2.8395   -6.6329 H   0  0  0  0  0  0  0  0  0  0  0  0
    3.0705   -2.3214   -5.3545 H   0  0  0  0  0  0  0  0  0  0  0  0
  1  2  1  0  0  0  0
  1 25  1  0  0  0  0
  1 26  1  0  0  0  0
  1 27  1  0  0  0  0
  2  3  1  0  0  0  0
  2 24  2  3  0  0  0
  3  4  2  0  0  0  0
  3  8  1  0  0  0  0
  4  5  1  0  0  0  0
  4 28  1  0  0  0  0
  5  6  2  0  0  0  0
  5 29  1  0  0  0  0
  6  7  1  0  0  0  0
  6  8  1  0  0  0  0
  7 30  1  0  0  0  0
  7 31  1  0  0  0  0
  7 32  1  0  0  0  0
  8  9  2  3  0  0  0
  9 10  1  0  0  0  0
  9 11  1  0  0  0  0
 10 33  1  0  0  0  0
 10 34  1  0  0  0  0
 10 35  1  0  0  0  0
 11 12  1  0  0  0  0
 11 13  2  3  0  0  0
 12 36  1  0  0  0  0
 12 37  1  0  0  0  0
 12 38  1  0  0  0  0
 13 14  1  0  0  0  0
 13 39  1  0  0  0  0
 14 15  1  0  0  0  0
 14 23  2  0  0  0  0
 15 16  2  0  0  0  0
 15 40  1  0  0  0  0
 16 17  1  0  0  0  0
 16 41  1  0  0  0  0
 17 18  2  0  0  0  0
 17 42  1  0  0  0  0
 18 19  1  0  0  0  0
 18 43  1  0  0  0  0
 19 20  2  0  0  0  0
 19 44  1  0  0  0  0
 20 21  1  0  0  0  0
 20 45  1  0  0  0  0
 21 22  2  0  0  0  0
 21 46  1  0  0  0  0
 22 23  1  0  0  0  0
 22 47  1  0  0  0  0
 23 24  1  0  0  0  0
M  END
$$$$
