
 OpenBabel04232216543D

169168  0  0  0  0  0  0  0  0999 V2000
   30.2076  -20.7804    1.1626 C   0  0  0  0  0  0  0  0  0  0  0  0
   29.5439  -22.1313    1.3232 C   0  0  0  0  0  0  0  0  0  0  0  0
   28.0310  -21.9717    1.3684 C   0  0  0  0  0  0  0  0  0  0  0  0
   27.3613  -23.3264    1.5287 C   0  0  0  0  0  0  0  0  0  0  0  0
   25.9203  -23.1483    1.5771 N   0  0  0  0  0  0  0  0  0  0  0  0
   25.2801  -24.4511    1.7318 C   0  0  0  0  0  0  0  0  0  0  0  0
   23.8259  -24.3163    1.7996 N   0  0  0  0  0  0  0  0  0  0  0  0
   23.3464  -23.7235    0.6070 N   0  0  0  0  0  0  0  0  0  0  0  0
   23.6595  -24.5280   -0.5214 N   0  0  0  0  0  0  0  0  0  0  0  0
   23.2542  -23.9056   -1.7143 N   0  0  0  0  0  0  0  0  0  0  0  0
   23.8728  -22.6478   -1.9029 N   0  0  0  0  0  0  0  0  0  0  0  0
   25.2980  -22.7899   -1.9356 N   0  0  0  0  0  0  0  0  0  0  0  0
   25.6580  -23.6475   -3.0404 N   0  0  0  0  0  0  0  0  0  0  0  0
   25.1984  -23.0477   -4.2647 N   0  0  0  0  0  0  0  0  0  0  0  0
   25.8065  -21.7637   -4.4457 N   0  0  0  0  0  0  0  0  0  0  0  0
   27.2164  -21.8903   -4.4592 N   0  0  0  0  0  0  0  0  0  0  0  0
   27.6032  -22.7468   -5.5557 N   0  0  0  0  0  0  0  0  0  0  0  0
   27.1403  -22.1707   -6.8040 N   0  0  0  0  0  0  0  0  0  0  0  0
   27.7124  -20.8650   -6.9751 N   0  0  0  0  0  0  0  0  0  0  0  0
   29.1215  -20.9897   -6.9604 N   0  0  0  0  0  0  0  0  0  0  0  0
   29.5357  -21.8287   -8.0506 N   0  0  0  0  0  0  0  0  0  0  0  0
   29.0635  -21.3015   -9.2892 N   0  0  0  0  0  0  0  0  0  0  0  0
   29.6264  -19.9967   -9.5008 N   0  0  0  0  0  0  0  0  0  0  0  0
   31.0572  -20.0842   -9.4931 N   0  0  0  0  0  0  0  0  0  0  0  0
   31.4864  -20.9379  -10.5536 N   0  0  0  0  0  0  0  0  0  0  0  0
   31.0091  -20.4260  -11.8060 N   0  0  0  0  0  0  0  0  0  0  0  0
   31.5623  -19.1035  -12.0251 N   0  0  0  0  0  0  0  0  0  0  0  0
   32.9902  -19.1866  -11.9886 N   0  0  0  0  0  0  0  0  0  0  0  0
   33.3727  -20.0927  -13.0073 N   0  0  0  0  0  0  0  0  0  0  0  0
   32.9505  -19.5586  -14.2890 N   0  0  0  0  0  0  0  0  0  0  0  0
   33.4538  -18.2269  -14.4906 N   0  0  0  0  0  0  0  0  0  0  0  0
   34.8921  -18.2591  -14.5223 N   0  0  0  0  0  0  0  0  0  0  0  0
   35.3565  -19.1222  -15.5821 N   0  0  0  0  0  0  0  0  0  0  0  0
   34.8599  -18.6641  -16.8293 N   0  0  0  0  0  0  0  0  0  0  0  0
   35.3889  -17.3450  -17.0816 N   0  0  0  0  0  0  0  0  0  0  0  0
   36.8249  -17.3724  -17.0357 N   0  0  0  0  0  0  0  0  0  0  0  0
   37.2650  -18.2642  -18.0455 N   0  0  0  0  0  0  0  0  0  0  0  0
   36.7932  -17.7865  -19.3193 N   0  0  0  0  0  0  0  0  0  0  0  0
   37.2516  -16.4531  -19.5536 N   0  0  0  0  0  0  0  0  0  0  0  0
   38.6791  -16.4460  -19.5570 N   0  0  0  0  0  0  0  0  0  0  0  0
   39.1662  -17.3373  -20.5747 N   0  0  0  0  0  0  0  0  0  0  0  0
   38.7093  -16.8904  -21.8651 N   0  0  0  0  0  0  0  0  0  0  0  0
   39.1529  -15.5384  -22.1029 N   0  0  0  0  0  0  0  0  0  0  0  0
   40.5791  -15.5254  -22.0816 N   0  0  0  0  0  0  0  0  0  0  0  0
   41.0577  -16.4327  -23.0941 N   0  0  0  0  0  0  0  0  0  0  0  0
   40.6168  -16.0045  -24.4218 N   0  0  0  0  0  0  0  0  0  0  0  0
   41.0279  -14.6622  -24.6432 N   0  0  0  0  0  0  0  0  0  0  0  0
   42.4632  -14.6199  -24.6535 N   0  0  0  0  0  0  0  0  0  0  0  0
   42.9787  -15.5241  -25.6516 N   0  0  0  0  0  0  0  0  0  0  0  0
   42.4884  -15.1494  -26.9306 N   0  0  0  0  0  0  0  0  0  0  0  0
   42.9044  -13.8133  -27.2000 N   0  0  0  0  0  0  0  0  0  0  0  0
   44.3445  -13.7607  -27.1701 N   0  0  0  0  0  0  0  0  0  0  0  0
   44.9011  -14.6519  -28.1623 N   0  0  0  0  0  0  0  0  0  0  0  0
   44.4147  -14.2748  -29.4566 N   0  0  0  0  0  0  0  0  0  0  0  0
   44.8355  -12.9393  -29.7459 N   0  0  0  0  0  0  0  0  0  0  0  0
   46.2662  -12.8562  -29.7053 N   0  0  0  0  0  0  0  0  0  0  0  0
   46.8085  -13.7808  -30.6511 N   0  0  0  0  0  0  0  0  0  0  0  0
   46.3624  -13.4015  -31.9820 N   0  0  0  0  0  0  0  0  0  0  0  0
   46.7357  -12.0508  -32.2765 N   0  0  0  0  0  0  0  0  0  0  0  0
   48.1582  -11.9499  -32.2310 N   0  0  0  0  0  0  0  0  0  0  0  0
   48.7423  -12.8402  -33.2118 N   0  0  0  0  0  0  0  0  0  0  0  0
   48.2399  -12.5241  -34.4961 N   0  0  0  0  0  0  0  0  0  0  0  0
   48.5889  -11.1761  -34.7742 N   0  0  0  0  0  0  0  0  0  0  0  0
   50.0508  -11.0440  -34.7869 N   0  0  0  0  0  0  0  0  0  0  0  0
   50.6459  -11.9486  -35.7208 N   0  0  0  0  0  0  0  0  0  0  0  0
   50.1950  -11.6371  -37.0358 N   0  0  0  0  0  0  0  0  0  0  0  0
   50.5083  -10.2793  -37.3191 N   0  0  0  0  0  0  0  0  0  0  0  0
   51.9356  -10.1421  -37.2528 N   0  0  0  0  0  0  0  0  0  0  0  0
   52.5640  -11.0366  -38.2218 N   0  0  0  0  0  0  0  0  0  0  0  0
   52.1041  -10.7569  -39.5377 N   0  0  0  0  0  0  0  0  0  0  0  0
   52.4419   -9.4151  -39.8868 N   0  0  0  0  0  0  0  0  0  0  0  0
   53.8563   -9.2527  -39.7727 N   0  0  0  0  0  0  0  0  0  0  0  0
   54.4674  -10.1799  -40.6936 N   0  0  0  0  0  0  0  0  0  0  0  0
   54.0265   -9.8800  -42.0548 N   0  0  0  0  0  0  0  0  0  0  0  0
   54.3496   -8.5293  -42.4052 N   0  0  0  0  0  0  0  0  0  0  0  0
   55.7647   -8.3374  -42.3318 N   0  0  0  0  0  0  0  0  0  0  0  0
   56.4147   -9.2526  -43.2364 N   0  0  0  0  0  0  0  0  0  0  0  0
   55.9606   -9.0059  -44.5729 N   0  0  0  0  0  0  0  0  0  0  0  0
   56.2733   -7.6566  -44.9583 N   0  0  0  0  0  0  0  0  0  0  0  0
   57.6969   -7.4206  -44.8830 N   0  0  0  0  0  0  0  0  0  0  0  0
   58.3710   -8.3374  -45.7623 N   0  0  0  0  0  0  0  0  0  0  0  0
   31.2939  -20.8951    1.1301 H   0  0  0  0  0  0  0  0  0  0  0  0
   29.9485  -20.1286    2.0026 H   0  0  0  0  0  0  0  0  0  0  0  0
   29.8770  -20.3036    0.2348 H   0  0  0  0  0  0  0  0  0  0  0  0
   29.8960  -22.6032    2.2474 H   0  0  0  0  0  0  0  0  0  0  0  0
   29.8246  -22.7778    0.4841 H   0  0  0  0  0  0  0  0  0  0  0  0
   27.6901  -21.4915    0.4431 H   0  0  0  0  0  0  0  0  0  0  0  0
   27.7607  -21.3193    2.2077 H   0  0  0  0  0  0  0  0  0  0  0  0
   27.7163  -23.7924    2.4545 H   0  0  0  0  0  0  0  0  0  0  0  0
   27.6446  -23.9676    0.6856 H   0  0  0  0  0  0  0  0  0  0  0  0
   25.6052  -22.7383    0.6910 H   0  0  0  0  0  0  0  0  0  0  0  0
   25.6099  -24.9330    2.6551 H   0  0  0  0  0  0  0  0  0  0  0  0
   25.5638  -25.1212    0.9082 H   0  0  0  0  0  0  0  0  0  0  0  0
   23.5825  -23.7019    2.5740 H   0  0  0  0  0  0  0  0  0  0  0  0
   23.7667  -22.7937    0.5349 H   0  0  0  0  0  0  0  0  0  0  0  0
   23.2546  -25.4734   -0.4199 H   0  0  0  0  0  0  0  0  0  0  0  0
   22.2453  -23.7886   -1.7684 H   0  0  0  0  0  0  0  0  0  0  0  0
   23.6229  -21.9968   -1.1793 H   0  0  0  0  0  0  0  0  0  0  0  0
   25.5924  -23.2376   -1.0697 H   0  0  0  0  0  0  0  0  0  0  0  0
   25.1882  -24.5564   -2.9057 H   0  0  0  0  0  0  0  0  0  0  0  0
   24.1859  -22.9230   -4.2586 H   0  0  0  0  0  0  0  0  0  0  0  0
   25.5346  -21.1360   -3.6900 H   0  0  0  0  0  0  0  0  0  0  0  0
   27.5484  -22.2744   -3.5680 H   0  0  0  0  0  0  0  0  0  0  0  0
   27.1590  -23.6663   -5.4207 H   0  0  0  0  0  0  0  0  0  0  0  0
   26.1339  -22.0443   -6.7540 H   0  0  0  0  0  0  0  0  0  0  0  0
   27.4379  -20.2815   -6.1880 H   0  0  0  0  0  0  0  0  0  0  0  0
   29.4329  -21.3700   -6.0568 H   0  0  0  0  0  0  0  0  0  0  0  0
   29.1242  -22.7544   -7.9496 H   0  0  0  0  0  0  0  0  0  0  0  0
   28.0586  -21.2022   -9.2755 H   0  0  0  0  0  0  0  0  0  0  0  0
   29.3581  -19.4238   -8.7093 H   0  0  0  0  0  0  0  0  0  0  0  0
   31.3209  -20.5009   -8.5866 H   0  0  0  0  0  0  0  0  0  0  0  0
   31.0681  -21.8557  -10.4050 H   0  0  0  0  0  0  0  0  0  0  0  0
   29.9784  -20.3942  -11.7511 H   0  0  0  0  0  0  0  0  0  0  0  0
   31.2803  -18.5288  -11.2392 H   0  0  0  0  0  0  0  0  0  0  0  0
   33.2554  -19.5772  -11.0785 H   0  0  0  0  0  0  0  0  0  0  0  0
   32.9618  -21.0228  -12.8419 H   0  0  0  0  0  0  0  0  0  0  0  0
   31.9354  -19.4880  -14.3224 H   0  0  0  0  0  0  0  0  0  0  0  0
   33.1224  -17.5969  -13.7546 H   0  0  0  0  0  0  0  0  0  0  0  0
   35.2290  -18.6471  -13.6483 H   0  0  0  0  0  0  0  0  0  0  0  0
   34.9677  -20.0533  -15.4247 H   0  0  0  0  0  0  0  0  0  0  0  0
   33.8260  -18.6692  -16.7908 H   0  0  0  0  0  0  0  0  0  0  0  0
   35.0853  -16.7412  -16.3208 H   0  0  0  0  0  0  0  0  0  0  0  0
   37.0953  -17.7345  -16.1131 H   0  0  0  0  0  0  0  0  0  0  0  0
   36.8534  -19.1787  -17.8953 H   0  0  0  0  0  0  0  0  0  0  0  0
   35.7758  -17.7595  -19.3017 H   0  0  0  0  0  0  0  0  0  0  0  0
   36.9137  -15.8544  -18.8054 H   0  0  0  0  0  0  0  0  0  0  0  0
   39.0113  -16.7994  -18.6700 H   0  0  0  0  0  0  0  0  0  0  0  0
   38.7928  -18.2785  -20.3572 H   0  0  0  0  0  0  0  0  0  0  0  0
   37.6890  -16.8776  -21.8601 H   0  0  0  0  0  0  0  0  0  0  0  0
   38.7732  -14.9580  -21.3429 H   0  0  0  0  0  0  0  0  0  0  0  0
   40.9059  -15.8884  -21.1929 H   0  0  0  0  0  0  0  0  0  0  0  0
   40.6990  -17.3747  -22.8791 H   0  0  0  0  0  0  0  0  0  0  0  0
   39.5962  -16.0060  -24.4115 H   0  0  0  0  0  0  0  0  0  0  0  0
   40.6433  -14.0586  -23.9058 H   0  0  0  0  0  0  0  0  0  0  0  0
   42.8069  -14.9483  -23.7496 H   0  0  0  0  0  0  0  0  0  0  0  0
   42.6257  -16.4593  -25.4193 H   0  0  0  0  0  0  0  0  0  0  0  0
   41.4790  -15.1638  -26.9088 H   0  0  0  0  0  0  0  0  0  0  0  0
   42.5684  -13.2190  -26.4522 H   0  0  0  0  0  0  0  0  0  0  0  0
   44.6424  -14.0583  -26.2309 H   0  0  0  0  0  0  0  0  0  0  0  0
   44.5634  -15.5933  -27.9683 H   0  0  0  0  0  0  0  0  0  0  0  0
   43.3826  -14.3386  -29.4323 H   0  0  0  0  0  0  0  0  0  0  0  0
   44.4734  -12.3053  -29.0371 H   0  0  0  0  0  0  0  0  0  0  0  0
   46.5820  -13.1424  -28.7887 H   0  0  0  0  0  0  0  0  0  0  0  0
   46.4644  -14.7164  -30.4093 H   0  0  0  0  0  0  0  0  0  0  0  0
   45.3421  -13.4207  -31.9787 H   0  0  0  0  0  0  0  0  0  0  0  0
   46.3362  -11.4360  -31.5680 H   0  0  0  0  0  0  0  0  0  0  0  0
   48.4524  -12.2089  -31.2799 H   0  0  0  0  0  0  0  0  0  0  0  0
   48.4295  -13.7873  -33.0029 H   0  0  0  0  0  0  0  0  0  0  0  0
   47.2309  -12.5806  -34.4934 H   0  0  0  0  0  0  0  0  0  0  0  0
   48.1790  -10.5831  -34.0450 H   0  0  0  0  0  0  0  0  0  0  0  0
   50.3710  -11.3286  -33.8562 H   0  0  0  0  0  0  0  0  0  0  0  0
   50.3657  -12.9006  -35.4822 H   0  0  0  0  0  0  0  0  0  0  0  0
   49.1812  -11.7277  -37.0269 H   0  0  0  0  0  0  0  0  0  0  0  0
   50.0753   -9.7022  -36.5932 H   0  0  0  0  0  0  0  0  0  0  0  0
   52.2422  -10.4296  -36.3258 H   0  0  0  0  0  0  0  0  0  0  0  0
   52.2681  -11.9914  -37.9912 H   0  0  0  0  0  0  0  0  0  0  0  0
   51.0938  -10.8653  -39.5572 H   0  0  0  0  0  0  0  0  0  0  0  0
   52.0124   -8.8131  -39.1923 H   0  0  0  0  0  0  0  0  0  0  0  0
   54.1060   -9.5080  -38.8093 H   0  0  0  0  0  0  0  0  0  0  0  0
   54.1404  -11.1236  -40.4227 H   0  0  0  0  0  0  0  0  0  0  0  0
   53.0007   -9.9694  -42.0599 H   0  0  0  0  0  0  0  0  0  0  0  0
   53.8914   -7.9029  -41.7418 H   0  0  0  0  0  0  0  0  0  0  0  0
   56.0612   -8.5657  -41.3908 H   0  0  0  0  0  0  0  0  0  0  0  0
   56.1011  -10.1865  -42.9742 H   0  0  0  0  0  0  0  0  0  0  0  0
   54.9359   -9.1141  -44.5545 H   0  0  0  0  0  0  0  0  0  0  0  0
   55.7971   -7.0512  -44.2738 H   0  0  0  0  0  0  0  0  0  0  0  0
   57.9508   -7.6491  -43.9176 H   0  0  0  0  0  0  0  0  0  0  0  0
   57.9423   -8.1864  -46.6695 H   0  0  0  0  0  0  0  0  0  0  0  0
   58.0332   -9.2660  -45.4795 H   0  0  0  0  0  0  0  0  0  0  0  0
  1  2  1  0  0  0  0
  1 82  1  0  0  0  0
  1 83  1  0  0  0  0
  1 84  1  0  0  0  0
  2  3  1  0  0  0  0
  2 85  1  0  0  0  0
  2 86  1  0  0  0  0
  3  4  1  0  0  0  0
  3 87  1  0  0  0  0
  3 88  1  0  0  0  0
  4  5  1  0  0  0  0
  4 89  1  0  0  0  0
  4 90  1  0  0  0  0
  5  6  1  0  0  0  0
  5 91  1  0  0  0  0
  6  7  1  0  0  0  0
  6 92  1  0  0  0  0
  6 93  1  0  0  0  0
  7  8  1  0  0  0  0
  7 94  1  0  0  0  0
  8  9  1  0  0  0  0
  8 95  1  0  0  0  0
  9 10  1  0  0  0  0
  9 96  1  0  0  0  0
 10 11  1  0  0  0  0
 10 97  1  0  0  0  0
 11 12  1  0  0  0  0
 11 98  1  0  0  0  0
 12 13  1  0  0  0  0
 12 99  1  0  0  0  0
 13 14  1  0  0  0  0
 13100  1  0  0  0  0
 14 15  1  0  0  0  0
 14101  1  0  0  0  0
 15 16  1  0  0  0  0
 15102  1  0  0  0  0
 16 17  1  0  0  0  0
 16103  1  0  0  0  0
 17 18  1  0  0  0  0
 17104  1  0  0  0  0
 18 19  1  0  0  0  0
 18105  1  0  0  0  0
 19 20  1  0  0  0  0
 19106  1  0  0  0  0
 20 21  1  0  0  0  0
 20107  1  0  0  0  0
 21 22  1  0  0  0  0
 21108  1  0  0  0  0
 22 23  1  0  0  0  0
 22109  1  0  0  0  0
 23 24  1  0  0  0  0
 23110  1  0  0  0  0
 24 25  1  0  0  0  0
 24111  1  0  0  0  0
 25 26  1  0  0  0  0
 25112  1  0  0  0  0
 26 27  1  0  0  0  0
 26113  1  0  0  0  0
 27 28  1  0  0  0  0
 27114  1  0  0  0  0
 28 29  1  0  0  0  0
 28115  1  0  0  0  0
 29 30  1  0  0  0  0
 29116  1  0  0  0  0
 30 31  1  0  0  0  0
 30117  1  0  0  0  0
 31 32  1  0  0  0  0
 31118  1  0  0  0  0
 32 33  1  0  0  0  0
 32119  1  0  0  0  0
 33 34  1  0  0  0  0
 33120  1  0  0  0  0
 34 35  1  0  0  0  0
 34121  1  0  0  0  0
 35 36  1  0  0  0  0
 35122  1  0  0  0  0
 36 37  1  0  0  0  0
 36123  1  0  0  0  0
 37 38  1  0  0  0  0
 37124  1  0  0  0  0
 38 39  1  0  0  0  0
 38125  1  0  0  0  0
 39 40  1  0  0  0  0
 39126  1  0  0  0  0
 40 41  1  0  0  0  0
 40127  1  0  0  0  0
 41 42  1  0  0  0  0
 41128  1  0  0  0  0
 42 43  1  0  0  0  0
 42129  1  0  0  0  0
 43 44  1  0  0  0  0
 43130  1  0  0  0  0
 44 45  1  0  0  0  0
 44131  1  0  0  0  0
 45 46  1  0  0  0  0
 45132  1  0  0  0  0
 46 47  1  0  0  0  0
 46133  1  0  0  0  0
 47 48  1  0  0  0  0
 47134  1  0  0  0  0
 48 49  1  0  0  0  0
 48135  1  0  0  0  0
 49 50  1  0  0  0  0
 49136  1  0  0  0  0
 50 51  1  0  0  0  0
 50137  1  0  0  0  0
 51 52  1  0  0  0  0
 51138  1  0  0  0  0
 52 53  1  0  0  0  0
 52139  1  0  0  0  0
 53 54  1  0  0  0  0
 53140  1  0  0  0  0
 54 55  1  0  0  0  0
 54141  1  0  0  0  0
 55 56  1  0  0  0  0
 55142  1  0  0  0  0
 56 57  1  0  0  0  0
 56143  1  0  0  0  0
 57 58  1  0  0  0  0
 57144  1  0  0  0  0
 58 59  1  0  0  0  0
 58145  1  0  0  0  0
 59 60  1  0  0  0  0
 59146  1  0  0  0  0
 60 61  1  0  0  0  0
 60147  1  0  0  0  0
 61 62  1  0  0  0  0
 61148  1  0  0  0  0
 62 63  1  0  0  0  0
 62149  1  0  0  0  0
 63 64  1  0  0  0  0
 63150  1  0  0  0  0
 64 65  1  0  0  0  0
 64151  1  0  0  0  0
 65 66  1  0  0  0  0
 65152  1  0  0  0  0
 66 67  1  0  0  0  0
 66153  1  0  0  0  0
 67 68  1  0  0  0  0
 67154  1  0  0  0  0
 68 69  1  0  0  0  0
 68155  1  0  0  0  0
 69 70  1  0  0  0  0
 69156  1  0  0  0  0
 70 71  1  0  0  0  0
 70157  1  0  0  0  0
 71 72  1  0  0  0  0
 71158  1  0  0  0  0
 72 73  1  0  0  0  0
 72159  1  0  0  0  0
 73 74  1  0  0  0  0
 73160  1  0  0  0  0
 74 75  1  0  0  0  0
 74161  1  0  0  0  0
 75 76  1  0  0  0  0
 75162  1  0  0  0  0
 76 77  1  0  0  0  0
 76163  1  0  0  0  0
 77 78  1  0  0  0  0
 77164  1  0  0  0  0
 78 79  1  0  0  0  0
 78165  1  0  0  0  0
 79 80  1  0  0  0  0
 79166  1  0  0  0  0
 80 81  1  0  0  0  0
 80167  1  0  0  0  0
 81168  1  0  0  0  0
 81169  1  0  0  0  0
M  END
$$$$
