
 OpenBabel04232216553D

 57 59  0  0  0  0  0  0  0  0999 V2000
    1.8067    0.2465   -1.1825 C   0  0  0  0  0  0  0  0  0  0  0  0
    2.6018   -0.3567   -0.0427 C   0  0  0  0  0  0  0  0  0  0  0  0
    3.3507    0.6879    0.6640 N   0  0  0  0  0  0  0  0  0  0  0  0
    4.3920    1.4078    0.0326 C   0  0  0  0  0  0  0  0  0  0  0  0
    4.7317    2.6555    0.4665 C   0  0  0  0  0  0  0  0  0  0  0  0
    3.7364    3.7303    0.7809 C   0  0  0  0  0  0  0  0  0  0  0  0
    3.9970    4.9798    0.0484 N   0  0  0  0  0  0  0  0  0  0  0  0
    3.8059    4.8330   -1.3932 C   0  0  0  0  0  0  0  0  0  0  0  0
    4.0995    6.1707   -2.0733 C   0  0  0  0  0  0  0  0  0  0  0  0
    3.9146    6.0831   -3.5875 C   0  0  0  0  0  0  0  0  0  0  0  0
    4.2077    7.4209   -4.2476 C   0  0  0  0  0  0  0  0  0  0  0  0
    6.0671    2.7994    1.0153 C   0  0  0  0  0  0  0  0  0  0  0  0
    7.2402    2.5618    0.4007 C   0  0  0  0  0  0  0  0  0  0  0  0
    8.3827    2.5858    1.2964 C   0  0  0  0  0  0  0  0  0  0  0  0
    8.0624    2.7912    2.5831 C   0  0  0  0  0  0  0  0  0  0  0  0
    6.3925    3.3830    2.6828 S   0  0  3  0  0  0  0  0  0  0  0  0
    5.4168    2.4306    3.9021 C   0  0  0  0  0  0  0  0  0  0  0  0
    4.5639    3.3958    4.6577 C   0  0  0  0  0  0  0  0  0  0  0  0
    4.6035    3.4662    5.9954 C   0  0  0  0  0  0  0  0  0  0  0  0
    3.3039    3.5368    6.7006 C   0  0  0  0  0  0  0  0  0  0  0  0
    3.0580    2.4292    7.4577 C   0  0  0  0  0  0  0  0  0  0  0  0
    2.8296    1.2266    6.6016 C   0  0  0  0  0  0  0  0  0  0  0  0
    3.9040    0.4726    6.2992 C   0  0  0  0  0  0  0  0  0  0  0  0
    4.2885    0.2090    4.9295 C   0  0  0  0  0  0  0  0  0  0  0  0
    4.8896    0.9667    3.9616 C   0  0  0  0  0  0  0  0  0  0  0  0
    4.7274    0.3932    2.6469 C   0  0  0  0  0  0  0  0  0  0  0  0
    3.5296    0.5223    2.0404 C   0  0  0  0  0  0  0  0  0  0  0  0
    1.1602   -0.5089   -1.6363 H   0  0  0  0  0  0  0  0  0  0  0  0
    2.4720    0.6381   -1.9578 H   0  0  0  0  0  0  0  0  0  0  0  0
    1.1822    1.0724   -0.8244 H   0  0  0  0  0  0  0  0  0  0  0  0
    3.2887   -1.1276   -0.4105 H   0  0  0  0  0  0  0  0  0  0  0  0
    1.9036   -0.8497    0.6476 H   0  0  0  0  0  0  0  0  0  0  0  0
    5.1585    0.6818   -0.2425 H   0  0  0  0  0  0  0  0  0  0  0  0
    3.7507    3.9794    1.8442 H   0  0  0  0  0  0  0  0  0  0  0  0
    2.7100    3.4014    0.5810 H   0  0  0  0  0  0  0  0  0  0  0  0
    4.9544    5.2751    0.2454 H   0  0  0  0  0  0  0  0  0  0  0  0
    2.7733    4.5309   -1.6041 H   0  0  0  0  0  0  0  0  0  0  0  0
    4.4750    4.0695   -1.8070 H   0  0  0  0  0  0  0  0  0  0  0  0
    5.1294    6.4792   -1.8526 H   0  0  0  0  0  0  0  0  0  0  0  0
    3.4372    6.9470   -1.6690 H   0  0  0  0  0  0  0  0  0  0  0  0
    2.8876    5.7802   -3.8225 H   0  0  0  0  0  0  0  0  0  0  0  0
    4.5827    5.3195   -4.0027 H   0  0  0  0  0  0  0  0  0  0  0  0
    3.5391    8.1987   -3.8680 H   0  0  0  0  0  0  0  0  0  0  0  0
    4.0699    7.3498   -5.3307 H   0  0  0  0  0  0  0  0  0  0  0  0
    5.2402    7.7325   -4.0559 H   0  0  0  0  0  0  0  0  0  0  0  0
    7.3279    2.2540   -0.6375 H   0  0  0  0  0  0  0  0  0  0  0  0
    9.3755    2.4044    0.9070 H   0  0  0  0  0  0  0  0  0  0  0  0
    8.8266    2.8299    3.3581 H   0  0  0  0  0  0  0  0  0  0  0  0
    3.6918    3.7096    4.0812 H   0  0  0  0  0  0  0  0  0  0  0  0
    5.4407    3.0284    6.5386 H   0  0  0  0  0  0  0  0  0  0  0  0
    2.5100    3.7832    5.9796 H   0  0  0  0  0  0  0  0  0  0  0  0
    3.7731    2.2194    8.2533 H   0  0  0  0  0  0  0  0  0  0  0  0
    2.0692    1.4197    5.8417 H   0  0  0  0  0  0  0  0  0  0  0  0
    4.5346    0.0720    7.0908 H   0  0  0  0  0  0  0  0  0  0  0  0
    3.9677   -0.7960    4.6570 H   0  0  0  0  0  0  0  0  0  0  0  0
    5.6384    0.1718    2.0988 H   0  0  0  0  0  0  0  0  0  0  0  0
    2.6337    0.8193    2.5849 H   0  0  0  0  0  0  0  0  0  0  0  0
  1  2  1  0  0  0  0
  1 28  1  0  0  0  0
  1 29  1  0  0  0  0
  1 30  1  0  0  0  0
  2  3  1  0  0  0  0
  2 31  1  0  0  0  0
  2 32  1  0  0  0  0
  3  4  1  0  0  0  0
  3 27  1  0  0  0  0
  4  5  2  3  0  0  0
  4 33  1  0  0  0  0
  5  6  1  0  0  0  0
  5 12  1  0  0  0  0
  6  7  1  0  0  0  0
  6 34  1  0  0  0  0
  6 35  1  0  0  0  0
  7  8  1  0  0  0  0
  7 36  1  0  0  0  0
  8  9  1  0  0  0  0
  8 37  1  0  0  0  0
  8 38  1  0  0  0  0
  9 10  1  0  0  0  0
  9 39  1  0  0  0  0
  9 40  1  0  0  0  0
 10 11  1  0  0  0  0
 10 41  1  0  0  0  0
 10 42  1  0  0  0  0
 11 43  1  0  0  0  0
 11 44  1  0  0  0  0
 11 45  1  0  0  0  0
 12 13  2  0  0  0  0
 12 16  1  0  0  0  0
 13 14  1  0  0  0  0
 13 46  1  0  0  0  0
 14 15  2  0  0  0  0
 14 47  1  0  0  0  0
 15 16  1  0  0  0  0
 15 48  1  0  0  0  0
 16 17  2  3  0  0  0
 17 18  1  0  0  0  0
 17 25  1  0  0  0  0
 18 19  2  3  0  0  0
 18 49  1  0  0  0  0
 19 20  1  0  0  0  0
 19 50  1  0  0  0  0
 20 21  2  3  0  0  0
 20 51  1  0  0  0  0
 21 22  1  0  0  0  0
 21 52  1  0  0  0  0
 22 23  2  3  0  0  0
 22 53  1  0  0  0  0
 23 24  1  0  0  0  0
 23 54  1  0  0  0  0
 24 25  2  3  0  0  0
 24 55  1  0  0  0  0
 25 26  1  0  0  0  0
 26 27  2  3  0  0  0
 26 56  1  0  0  0  0
 27 57  1  0  0  0  0
M  END
$$$$
