
 OpenBabel04232216463D

 53 54  0  0  0  0  0  0  0  0999 V2000
    5.4387   -2.3480    0.0581 C   0  0  0  0  0  0  0  0  0  0  0  0
    6.6803   -1.6225    0.5562 C   0  0  0  0  0  0  0  0  0  0  0  0
    6.2290   -0.5276    1.3766 C   0  0  0  0  0  0  0  0  0  0  0  0
    5.5685    0.6380    1.1294 C   0  0  0  0  0  0  0  0  0  0  0  0
    5.0168    1.0347   -0.0559 N   0  0  0  0  0  0  0  0  0  0  0  0
    5.6745    1.5154    2.1737 N   0  0  0  0  0  0  0  0  0  0  0  0
    6.9376    1.8100    2.3791 C   0  0  0  0  0  0  0  0  0  0  0  0
    8.0897    1.7430    1.2701 C   0  0  0  0  0  0  0  0  0  0  0  0
    7.9824    1.6258   -0.2764 C   0  0  0  0  0  0  0  0  0  0  0  0
    7.6499    2.8248   -1.1581 C   0  0  0  0  0  0  0  0  0  0  0  0
    7.5178    2.3762   -2.6248 C   0  0  0  0  0  0  0  0  0  0  0  0
    7.3328    1.7668    3.8609 C   0  0  0  0  0  0  0  0  0  0  0  0
    8.5504    1.3094    4.1743 C   0  0  0  0  0  0  0  0  0  0  0  0
    9.2133    0.9950    5.4447 C   0  0  0  0  0  0  0  0  0  0  0  0
   10.4732    0.4844    5.4557 C   0  0  0  0  0  0  0  0  0  0  0  0
   11.4830    0.5571    6.5814 C   0  0  0  0  0  0  0  0  0  0  0  0
   12.9235    0.5843    6.0663 C   0  0  0  0  0  0  0  0  0  0  0  0
   13.2682    0.3467    4.7616 C   0  0  0  0  0  0  0  0  0  0  0  0
   10.9912   -0.0703    4.2241 C   0  0  0  0  0  0  0  0  0  0  0  0
   12.2614   -0.0575    3.7894 C   0  0  0  0  0  0  0  0  0  0  0  0
   12.3437   -0.2596    2.3070 C   0  0  0  0  0  0  0  0  0  0  0  0
   11.4827   -1.1755    1.7008 C   0  0  0  0  0  0  0  0  0  0  0  0
   10.5347   -0.9231    0.6109 C   0  0  0  0  0  0  0  0  0  0  0  0
    9.2668   -1.2243    0.1821 C   0  0  0  0  0  0  0  0  0  0  0  0
    7.9845   -2.0099    0.3441 C   0  0  0  0  0  0  0  0  0  0  0  0
    4.7696   -2.6292    0.8839 H   0  0  0  0  0  0  0  0  0  0  0  0
    5.6681   -3.2331   -0.5285 H   0  0  0  0  0  0  0  0  0  0  0  0
    4.8487   -1.6875   -0.5953 H   0  0  0  0  0  0  0  0  0  0  0  0
    6.4601   -0.7195    2.4355 H   0  0  0  0  0  0  0  0  0  0  0  0
    4.1300    1.5061    0.0948 H   0  0  0  0  0  0  0  0  0  0  0  0
    4.9963    0.3318   -0.7793 H   0  0  0  0  0  0  0  0  0  0  0  0
    8.5431    0.7784    1.5179 H   0  0  0  0  0  0  0  0  0  0  0  0
    8.8430    2.4935    1.5168 H   0  0  0  0  0  0  0  0  0  0  0  0
    7.3721    0.8020   -0.5960 H   0  0  0  0  0  0  0  0  0  0  0  0
    8.9924    1.3334   -0.6151 H   0  0  0  0  0  0  0  0  0  0  0  0
    8.4602    3.5539   -1.0957 H   0  0  0  0  0  0  0  0  0  0  0  0
    6.7208    3.3023   -0.8416 H   0  0  0  0  0  0  0  0  0  0  0  0
    8.4209    1.8613   -2.9773 H   0  0  0  0  0  0  0  0  0  0  0  0
    7.3515    3.2362   -3.2824 H   0  0  0  0  0  0  0  0  0  0  0  0
    6.6769    1.6856   -2.7627 H   0  0  0  0  0  0  0  0  0  0  0  0
    6.5415    1.8648    4.5948 H   0  0  0  0  0  0  0  0  0  0  0  0
    9.2070    1.1750    3.3276 H   0  0  0  0  0  0  0  0  0  0  0  0
    8.7273    1.3008    6.3640 H   0  0  0  0  0  0  0  0  0  0  0  0
   11.3604   -0.2900    7.2664 H   0  0  0  0  0  0  0  0  0  0  0  0
   11.3195    1.4764    7.1605 H   0  0  0  0  0  0  0  0  0  0  0  0
   13.6865    0.8084    6.8043 H   0  0  0  0  0  0  0  0  0  0  0  0
   14.3243    0.4059    4.4824 H   0  0  0  0  0  0  0  0  0  0  0  0
   10.2295   -0.4401    3.5510 H   0  0  0  0  0  0  0  0  0  0  0  0
   12.4133    0.7460    1.8769 H   0  0  0  0  0  0  0  0  0  0  0  0
   12.0591   -2.0699    1.4454 H   0  0  0  0  0  0  0  0  0  0  0  0
   11.0276   -0.2239   -0.0912 H   0  0  0  0  0  0  0  0  0  0  0  0
    9.1186   -0.7974   -0.8200 H   0  0  0  0  0  0  0  0  0  0  0  0
    8.0696   -2.9235   -0.2447 H   0  0  0  0  0  0  0  0  0  0  0  0
  1  2  1  0  0  0  0
  1 26  1  0  0  0  0
  1 27  1  0  0  0  0
  1 28  1  0  0  0  0
  2  3  1  0  0  0  0
  2 25  2  3  0  0  0
  3  4  2  3  0  0  0
  3 29  1  0  0  0  0
  4  5  1  0  0  0  0
  4  6  1  0  0  0  0
  5 30  1  0  0  0  0
  5 31  1  0  0  0  0
  6  7  2  3  0  0  0
  7  8  1  0  0  0  0
  7 12  1  0  0  0  0
  8  9  1  0  0  0  0
  8 32  1  0  0  0  0
  8 33  1  0  0  0  0
  9 10  1  0  0  0  0
  9 34  1  0  0  0  0
  9 35  1  0  0  0  0
 10 11  1  0  0  0  0
 10 36  1  0  0  0  0
 10 37  1  0  0  0  0
 11 38  1  0  0  0  0
 11 39  1  0  0  0  0
 11 40  1  0  0  0  0
 12 13  2  3  0  0  0
 12 41  1  0  0  0  0
 13 14  1  0  0  0  0
 13 42  1  0  0  0  0
 14 15  2  3  0  0  0
 14 43  1  0  0  0  0
 15 16  1  0  0  0  0
 15 19  1  0  0  0  0
 16 17  1  0  0  0  0
 16 44  1  0  0  0  0
 16 45  1  0  0  0  0
 17 18  2  0  0  0  0
 17 46  1  0  0  0  0
 18 20  1  0  0  0  0
 18 47  1  0  0  0  0
 19 20  2  0  0  0  0
 19 48  1  0  0  0  0
 20 21  1  0  0  0  0
 21 22  2  3  0  0  0
 21 49  1  0  0  0  0
 22 23  1  0  0  0  0
 22 50  1  0  0  0  0
 23 24  2  3  0  0  0
 23 51  1  0  0  0  0
 24 25  1  0  0  0  0
 24 52  1  0  0  0  0
 25 53  1  0  0  0  0
M  END
$$$$
