
 OpenBabel04232216463D

 51 52  0  0  0  0  0  0  0  0999 V2000
    3.0779    2.2811    0.0369 C   0  0  0  0  0  0  0  0  0  0  0  0
    4.1582    1.2186   -0.0176 C   0  0  0  0  0  0  0  0  0  0  0  0
    3.8100    0.0640   -0.8750 C   0  0  0  0  0  0  0  0  0  0  0  0
    4.6554    0.0738   -1.9357 C   0  0  0  0  0  0  0  0  0  0  0  0
    5.2436    1.3520   -2.5444 C   0  0  0  0  0  0  0  0  0  0  0  0
    5.7777    1.2436   -3.9665 C   0  0  0  0  0  0  0  0  0  0  0  0
    4.6641    1.0034   -4.9745 C   0  0  0  0  0  0  0  0  0  0  0  0
    5.2390    0.9395   -6.3842 C   0  0  0  0  0  0  0  0  0  0  0  0
    4.1398    0.6758   -7.4056 C   0  0  0  0  0  0  0  0  0  0  0  0
    4.7129    0.5984   -8.8090 C   0  0  0  0  0  0  0  0  0  0  0  0
    5.4856   -1.1755   -2.0298 C   0  0  0  0  0  0  0  0  0  0  0  0
    6.6979   -0.7611   -1.2311 C   0  0  0  0  0  0  0  0  0  0  0  0
    7.7790   -0.5052   -1.7618 O   0  0  0  0  0  0  0  0  0  0  0  0
    6.5921   -0.7468    0.2697 C   0  0  0  0  0  0  0  0  0  0  0  0
    6.1815    0.3619    0.9436 C   0  0  0  0  0  0  0  0  0  0  0  0
    6.8110    0.7885    2.1003 N   0  0  0  0  0  0  0  0  0  0  0  0
    7.7267    0.1987    2.9175 C   0  0  0  0  0  0  0  0  0  0  0  0
    8.7557    0.7734    3.2643 O   0  0  0  0  0  0  0  0  0  0  0  0
    7.3030   -1.1144    3.5137 C   0  0  0  0  0  0  0  0  0  0  0  0
    8.1421   -2.2751    3.0291 C   0  0  0  0  0  0  0  0  0  0  0  0
    8.3326   -2.3082    1.5186 C   0  0  0  0  0  0  0  0  0  0  0  0
    7.0276   -2.1129    0.7608 C   0  0  0  0  0  0  0  0  0  0  0  0
    5.2852    1.3794    0.6249 N   0  0  0  0  0  0  0  0  0  0  0  0
    2.2489    1.9045    0.6461 H   0  0  0  0  0  0  0  0  0  0  0  0
    2.6902    2.4757   -0.9694 H   0  0  0  0  0  0  0  0  0  0  0  0
    3.4515    3.2102    0.4661 H   0  0  0  0  0  0  0  0  0  0  0  0
    3.4906   -0.8225   -0.3492 H   0  0  0  0  0  0  0  0  0  0  0  0
    6.0768    1.7014   -1.9207 H   0  0  0  0  0  0  0  0  0  0  0  0
    4.4919    2.1491   -2.5195 H   0  0  0  0  0  0  0  0  0  0  0  0
    6.5365    0.4570   -4.0412 H   0  0  0  0  0  0  0  0  0  0  0  0
    6.2910    2.1829   -4.2098 H   0  0  0  0  0  0  0  0  0  0  0  0
    3.9288    1.8141   -4.9083 H   0  0  0  0  0  0  0  0  0  0  0  0
    4.1417    0.0685   -4.7434 H   0  0  0  0  0  0  0  0  0  0  0  0
    5.9941    0.1460   -6.4375 H   0  0  0  0  0  0  0  0  0  0  0  0
    5.7466    1.8839   -6.6185 H   0  0  0  0  0  0  0  0  0  0  0  0
    3.3900    1.4738   -7.3600 H   0  0  0  0  0  0  0  0  0  0  0  0
    3.6297   -0.2649   -7.1680 H   0  0  0  0  0  0  0  0  0  0  0  0
    5.2103    1.5351   -9.0792 H   0  0  0  0  0  0  0  0  0  0  0  0
    3.9150    0.4116   -9.5330 H   0  0  0  0  0  0  0  0  0  0  0  0
    5.4436   -0.2133   -8.8866 H   0  0  0  0  0  0  0  0  0  0  0  0
    5.7433   -1.4579   -3.0507 H   0  0  0  0  0  0  0  0  0  0  0  0
    5.0308   -2.0509   -1.5493 H   0  0  0  0  0  0  0  0  0  0  0  0
    6.9446    1.7963    2.0401 H   0  0  0  0  0  0  0  0  0  0  0  0
    6.2391   -1.2862    3.3157 H   0  0  0  0  0  0  0  0  0  0  0  0
    7.3851   -1.0200    4.6016 H   0  0  0  0  0  0  0  0  0  0  0  0
    7.6466   -3.2016    3.3503 H   0  0  0  0  0  0  0  0  0  0  0  0
    9.1245   -2.2676    3.5141 H   0  0  0  0  0  0  0  0  0  0  0  0
    8.7230   -3.3064    1.2730 H   0  0  0  0  0  0  0  0  0  0  0  0
    9.0980   -1.5951    1.1943 H   0  0  0  0  0  0  0  0  0  0  0  0
    6.1876   -2.5452    1.3176 H   0  0  0  0  0  0  0  0  0  0  0  0
    7.1068   -2.7710   -0.1184 H   0  0  0  0  0  0  0  0  0  0  0  0
  1  2  1  0  0  0  0
  1 24  1  0  0  0  0
  1 25  1  0  0  0  0
  1 26  1  0  0  0  0
  2  3  1  0  0  0  0
  2 23  2  0  0  0  0
  3  4  2  0  0  0  0
  3 27  1  0  0  0  0
  4  5  1  0  0  0  0
  4 11  1  0  0  0  0
  5  6  1  0  0  0  0
  5 28  1  0  0  0  0
  5 29  1  0  0  0  0
  6  7  1  0  0  0  0
  6 30  1  0  0  0  0
  6 31  1  0  0  0  0
  7  8  1  0  0  0  0
  7 32  1  0  0  0  0
  7 33  1  0  0  0  0
  8  9  1  0  0  0  0
  8 34  1  0  0  0  0
  8 35  1  0  0  0  0
  9 10  1  0  0  0  0
  9 36  1  0  0  0  0
  9 37  1  0  0  0  0
 10 38  1  0  0  0  0
 10 39  1  0  0  0  0
 10 40  1  0  0  0  0
 11 12  1  0  0  0  0
 11 41  1  0  0  0  0
 11 42  1  0  0  0  0
 12 13  2  0  0  0  0
 12 14  1  0  0  0  0
 14 15  2  0  0  0  0
 14 22  1  0  0  0  0
 15 16  1  0  0  0  0
 15 23  1  0  0  0  0
 16 17  1  0  0  0  0
 16 43  1  0  0  0  0
 17 18  2  0  0  0  0
 17 19  1  0  0  0  0
 19 20  1  0  0  0  0
 19 44  1  0  0  0  0
 19 45  1  0  0  0  0
 20 21  1  0  0  0  0
 20 46  1  0  0  0  0
 20 47  1  0  0  0  0
 21 22  1  0  0  0  0
 21 48  1  0  0  0  0
 21 49  1  0  0  0  0
 22 50  1  0  0  0  0
 22 51  1  0  0  0  0
M  END
$$$$
