
 OpenBabel04232216573D

233232  0  0  0  0  0  0  0  0999 V2000
    1.0005   -0.1061    0.0158 N   0  0  0  0  0  0  0  0  0  0  0  0
    2.4556   -0.1124    0.0172 C   0  0  0  0  0  0  0  0  0  0  0  0
    2.9729    1.1033   -0.7349 C   0  0  0  0  0  0  0  0  0  0  0  0
    4.4941    1.1108   -0.7396 C   0  0  0  0  0  0  0  0  0  0  0  0
    5.0089    2.3257   -1.4911 C   0  0  0  0  0  0  0  0  0  0  0  0
    6.5264    2.3312   -1.4945 C   0  0  0  0  0  0  0  0  0  0  0  0
    7.0378    3.5448   -2.2475 C   0  0  0  0  0  0  0  0  0  0  0  0
    8.5544    3.5507   -2.2488 C   0  0  0  0  0  0  0  0  0  0  0  0
    9.0649    4.7640   -3.0016 C   0  0  0  0  0  0  0  0  0  0  0  0
   10.5813    4.7686   -3.0044 C   0  0  0  0  0  0  0  0  0  0  0  0
   11.0920    5.9828   -3.7554 C   0  0  0  0  0  0  0  0  0  0  0  0
   12.6079    5.9864   -3.7601 C   0  0  0  0  0  0  0  0  0  0  0  0
   13.1185    7.2016   -4.5093 C   0  0  0  0  0  0  0  0  0  0  0  0
   14.6346    7.2042   -4.5157 C   0  0  0  0  0  0  0  0  0  0  0  0
   15.1452    8.4193   -5.2648 C   0  0  0  0  0  0  0  0  0  0  0  0
   16.6613    8.4230   -5.2695 C   0  0  0  0  0  0  0  0  0  0  0  0
   17.1719    9.6392   -6.0170 C   0  0  0  0  0  0  0  0  0  0  0  0
   18.6879    9.6439   -6.0199 C   0  0  0  0  0  0  0  0  0  0  0  0
   19.1985   10.8590   -6.7691 C   0  0  0  0  0  0  0  0  0  0  0  0
   20.7146   10.8648   -6.7703 C   0  0  0  0  0  0  0  0  0  0  0  0
   21.2252   12.0789   -7.5212 C   0  0  0  0  0  0  0  0  0  0  0  0
   22.7412   12.0857   -7.5207 C   0  0  0  0  0  0  0  0  0  0  0  0
   23.2518   13.2987   -8.2733 C   0  0  0  0  0  0  0  0  0  0  0  0
   24.7679   13.3066   -8.2711 C   0  0  0  0  0  0  0  0  0  0  0  0
   25.2785   14.5196   -9.0237 C   0  0  0  0  0  0  0  0  0  0  0  0
   26.7945   14.5265   -9.0233 C   0  0  0  0  0  0  0  0  0  0  0  0
   27.3051   15.7395   -9.7759 C   0  0  0  0  0  0  0  0  0  0  0  0
   28.8212   15.7463   -9.7754 C   0  0  0  0  0  0  0  0  0  0  0  0
   29.3318   16.9593  -10.5280 C   0  0  0  0  0  0  0  0  0  0  0  0
   30.8478   16.9662  -10.5275 C   0  0  0  0  0  0  0  0  0  0  0  0
   31.3584   18.1791  -11.2801 C   0  0  0  0  0  0  0  0  0  0  0  0
   32.8745   18.1860  -11.2796 C   0  0  0  0  0  0  0  0  0  0  0  0
   33.3851   19.3990  -12.0322 C   0  0  0  0  0  0  0  0  0  0  0  0
   34.9012   19.4048  -12.0335 C   0  0  0  0  0  0  0  0  0  0  0  0
   35.4118   20.6178  -12.7861 C   0  0  0  0  0  0  0  0  0  0  0  0
   36.9278   20.6246  -12.7856 C   0  0  0  0  0  0  0  0  0  0  0  0
   37.4384   21.8387  -13.5365 C   0  0  0  0  0  0  0  0  0  0  0  0
   38.9545   21.8445  -13.5377 C   0  0  0  0  0  0  0  0  0  0  0  0
   39.4651   23.0575  -14.2903 C   0  0  0  0  0  0  0  0  0  0  0  0
   40.9811   23.0622  -14.2932 C   0  0  0  0  0  0  0  0  0  0  0  0
   41.4917   24.2762  -15.0442 C   0  0  0  0  0  0  0  0  0  0  0  0
   43.0078   24.2810  -15.0471 C   0  0  0  0  0  0  0  0  0  0  0  0
   43.5184   25.4950  -15.7980 C   0  0  0  0  0  0  0  0  0  0  0  0
   45.0345   25.4997  -15.8009 C   0  0  0  0  0  0  0  0  0  0  0  0
   45.5451   26.7138  -16.5518 C   0  0  0  0  0  0  0  0  0  0  0  0
   47.0611   26.7185  -16.5548 C   0  0  0  0  0  0  0  0  0  0  0  0
   47.5717   27.9326  -17.3057 C   0  0  0  0  0  0  0  0  0  0  0  0
   49.0878   27.9373  -17.3086 C   0  0  0  0  0  0  0  0  0  0  0  0
   49.5984   29.1513  -18.0595 C   0  0  0  0  0  0  0  0  0  0  0  0
   51.1144   29.1571  -18.0607 C   0  0  0  0  0  0  0  0  0  0  0  0
   51.6250   30.3712  -18.8116 C   0  0  0  0  0  0  0  0  0  0  0  0
   53.1411   30.3780  -18.8112 C   0  0  0  0  0  0  0  0  0  0  0  0
   53.6517   31.5910  -19.5637 C   0  0  0  0  0  0  0  0  0  0  0  0
   55.1678   31.5989  -19.5615 C   0  0  0  0  0  0  0  0  0  0  0  0
   55.6784   32.8130  -20.3124 C   0  0  0  0  0  0  0  0  0  0  0  0
   57.1944   32.8220  -20.3085 C   0  0  0  0  0  0  0  0  0  0  0  0
   57.7050   34.0350  -21.0611 C   0  0  0  0  0  0  0  0  0  0  0  0
   59.2211   34.0429  -21.0589 C   0  0  0  0  0  0  0  0  0  0  0  0
   59.7317   35.2559  -21.8116 C   0  0  0  0  0  0  0  0  0  0  0  0
   61.2476   35.2627  -21.8110 C   0  0  0  0  0  0  0  0  0  0  0  0
   61.7584   36.4759  -22.5638 C   0  0  0  0  0  0  0  0  0  0  0  0
   63.2748   36.4826  -22.5632 C   0  0  0  0  0  0  0  0  0  0  0  0
   63.7855   37.6960  -23.3161 C   0  0  0  0  0  0  0  0  0  0  0  0
   65.3025   37.7032  -23.3158 C   0  0  0  0  0  0  0  0  0  0  0  0
   65.8148   38.9172  -24.0690 C   0  0  0  0  0  0  0  0  0  0  0  0
   67.3337   38.9256  -24.0695 C   0  0  0  0  0  0  0  0  0  0  0  0
   67.8539   40.1399  -24.8229 C   0  0  0  0  0  0  0  0  0  0  0  0
   69.3811   40.1507  -24.8250 C   0  0  0  0  0  0  0  0  0  0  0  0
   69.9086   41.3666  -25.5801 C   0  0  0  0  0  0  0  0  0  0  0  0
   71.3823   41.3890  -25.5966 N   0  0  0  0  0  0  0  0  0  0  0  0
   71.8349   42.5491  -26.3153 C   0  0  0  0  0  0  0  0  0  0  0  0
   73.2731   42.5237  -26.2806 N   0  0  0  0  0  0  0  0  0  0  0  0
   73.7437   43.6610  -26.9992 N   0  0  0  0  0  0  0  0  0  0  0  0
   75.1541   43.6687  -26.9910 N   0  0  0  0  0  0  0  0  0  0  0  0
   75.6414   42.4892  -27.6285 N   0  0  0  0  0  0  0  0  0  0  0  0
   77.0584   42.4675  -27.6306 N   0  0  0  0  0  0  0  0  0  0  0  0
   77.5337   41.2830  -28.2468 N   0  0  0  0  0  0  0  0  0  0  0  0
   78.9741   41.2482  -28.2721 N   0  0  0  0  0  0  0  0  0  0  0  0
   79.4332   40.0686  -28.9265 N   0  0  0  0  0  0  0  0  0  0  0  0
   78.9838   40.0215  -30.2645 N   0  0  0  0  0  0  0  0  0  0  0  0
   79.4603   38.8465  -30.8860 N   0  0  0  0  0  0  0  0  0  0  0  0
    0.6597   -0.9383    0.4927 H   0  0  0  0  0  0  0  0  0  0  0  0
    0.6604   -0.1602   -0.9435 H   0  0  0  0  0  0  0  0  0  0  0  0
    2.8251   -1.0301   -0.4540 H   0  0  0  0  0  0  0  0  0  0  0  0
    2.8193   -0.0945    1.0499 H   0  0  0  0  0  0  0  0  0  0  0  0
    2.6043    2.0232   -0.2634 H   0  0  0  0  0  0  0  0  0  0  0  0
    2.6052    1.0944   -1.7689 H   0  0  0  0  0  0  0  0  0  0  0  0
    4.8715    0.1961   -1.2132 H   0  0  0  0  0  0  0  0  0  0  0  0
    4.8716    1.1261    0.2903 H   0  0  0  0  0  0  0  0  0  0  0  0
    4.6357    3.2426   -1.0186 H   0  0  0  0  0  0  0  0  0  0  0  0
    4.6357    2.3124   -2.5224 H   0  0  0  0  0  0  0  0  0  0  0  0
    6.9021    1.4152   -1.9667 H   0  0  0  0  0  0  0  0  0  0  0  0
    6.9020    2.3475   -0.4641 H   0  0  0  0  0  0  0  0  0  0  0  0
    6.6623    4.4616   -1.7767 H   0  0  0  0  0  0  0  0  0  0  0  0
    6.6646    3.5286   -3.2788 H   0  0  0  0  0  0  0  0  0  0  0  0
    8.9305    2.6343   -2.7199 H   0  0  0  0  0  0  0  0  0  0  0  0
    8.9282    3.5673   -1.2177 H   0  0  0  0  0  0  0  0  0  0  0  0
    8.6902    5.6806   -2.5297 H   0  0  0  0  0  0  0  0  0  0  0  0
    8.6902    4.7483   -4.0324 H   0  0  0  0  0  0  0  0  0  0  0  0
   10.9560    3.8527   -3.4776 H   0  0  0  0  0  0  0  0  0  0  0  0
   10.9561    4.7829   -1.9737 H   0  0  0  0  0  0  0  0  0  0  0  0
   10.7182    6.8987   -3.2814 H   0  0  0  0  0  0  0  0  0  0  0  0
   10.7159    5.9693   -4.7858 H   0  0  0  0  0  0  0  0  0  0  0  0
   12.9816    5.0711   -4.2354 H   0  0  0  0  0  0  0  0  0  0  0  0
   12.9840    5.9985   -2.7297 H   0  0  0  0  0  0  0  0  0  0  0  0
   12.7460    8.1169   -4.0331 H   0  0  0  0  0  0  0  0  0  0  0  0
   12.7413    7.1903   -5.5393 H   0  0  0  0  0  0  0  0  0  0  0  0
   15.0071    6.2889   -4.9918 H   0  0  0  0  0  0  0  0  0  0  0  0
   15.0118    7.2155   -3.4856 H   0  0  0  0  0  0  0  0  0  0  0  0
   14.7715    9.3346   -4.7895 H   0  0  0  0  0  0  0  0  0  0  0  0
   14.7691    8.4073   -6.2953 H   0  0  0  0  0  0  0  0  0  0  0  0
   17.0349    7.5083   -5.7461 H   0  0  0  0  0  0  0  0  0  0  0  0
   17.0373    8.4336   -4.2390 H   0  0  0  0  0  0  0  0  0  0  0  0
   16.7971   10.5538   -5.5413 H   0  0  0  0  0  0  0  0  0  0  0  0
   16.7969    9.6278   -7.0478 H   0  0  0  0  0  0  0  0  0  0  0  0
   19.0628    8.7286   -6.4943 H   0  0  0  0  0  0  0  0  0  0  0  0
   19.0627    9.6567   -4.9890 H   0  0  0  0  0  0  0  0  0  0  0  0
   18.8225   11.7743   -6.2955 H   0  0  0  0  0  0  0  0  0  0  0  0
   18.8248   10.8455   -7.8003 H   0  0  0  0  0  0  0  0  0  0  0  0
   21.0906    9.9489   -7.2426 H   0  0  0  0  0  0  0  0  0  0  0  0
   21.0882   10.8798   -5.7390 H   0  0  0  0  0  0  0  0  0  0  0  0
   20.8480   12.9948   -7.0498 H   0  0  0  0  0  0  0  0  0  0  0  0
   20.8526   12.0631   -8.5529 H   0  0  0  0  0  0  0  0  0  0  0  0
   23.1185   11.1692   -7.9908 H   0  0  0  0  0  0  0  0  0  0  0  0
   23.1137   12.1029   -6.4891 H   0  0  0  0  0  0  0  0  0  0  0  0
   22.8735   14.2152   -7.8041 H   0  0  0  0  0  0  0  0  0  0  0  0
   22.8805   13.2807   -9.3054 H   0  0  0  0  0  0  0  0  0  0  0  0
   25.1462   12.3901   -8.7404 H   0  0  0  0  0  0  0  0  0  0  0  0
   25.1392   13.3246   -7.2391 H   0  0  0  0  0  0  0  0  0  0  0  0
   24.9012   15.4361   -8.5536 H   0  0  0  0  0  0  0  0  0  0  0  0
   24.9060   14.5024  -10.0554 H   0  0  0  0  0  0  0  0  0  0  0  0
   27.1717   13.6099   -9.4934 H   0  0  0  0  0  0  0  0  0  0  0  0
   27.1670   14.5437   -7.9916 H   0  0  0  0  0  0  0  0  0  0  0  0
   26.9279   16.6560   -9.3058 H   0  0  0  0  0  0  0  0  0  0  0  0
   26.9326   15.7222  -10.8075 H   0  0  0  0  0  0  0  0  0  0  0  0
   29.1984   14.8298  -10.2455 H   0  0  0  0  0  0  0  0  0  0  0  0
   29.1937   15.7635   -8.7437 H   0  0  0  0  0  0  0  0  0  0  0  0
   28.9546   17.8758  -10.0579 H   0  0  0  0  0  0  0  0  0  0  0  0
   28.9593   16.9421  -11.5596 H   0  0  0  0  0  0  0  0  0  0  0  0
   31.2251   16.0496  -10.9976 H   0  0  0  0  0  0  0  0  0  0  0  0
   31.2203   16.9834   -9.4959 H   0  0  0  0  0  0  0  0  0  0  0  0
   30.9812   19.0957  -10.8100 H   0  0  0  0  0  0  0  0  0  0  0  0
   30.9859   18.1619  -12.3118 H   0  0  0  0  0  0  0  0  0  0  0  0
   33.2517   17.2694  -11.7497 H   0  0  0  0  0  0  0  0  0  0  0  0
   33.2470   18.2032  -10.2480 H   0  0  0  0  0  0  0  0  0  0  0  0
   33.0091   20.3155  -11.5613 H   0  0  0  0  0  0  0  0  0  0  0  0
   33.0115   19.3825  -13.0635 H   0  0  0  0  0  0  0  0  0  0  0  0
   35.2772   18.4882  -12.5044 H   0  0  0  0  0  0  0  0  0  0  0  0
   35.2748   19.4212  -11.0022 H   0  0  0  0  0  0  0  0  0  0  0  0
   35.0346   21.5343  -12.3159 H   0  0  0  0  0  0  0  0  0  0  0  0
   35.0393   20.6006  -13.8177 H   0  0  0  0  0  0  0  0  0  0  0  0
   37.3050   19.7087  -13.2570 H   0  0  0  0  0  0  0  0  0  0  0  0
   37.3004   20.6404  -11.7539 H   0  0  0  0  0  0  0  0  0  0  0  0
   37.0624   22.7546  -13.0642 H   0  0  0  0  0  0  0  0  0  0  0  0
   37.0647   21.8236  -14.5677 H   0  0  0  0  0  0  0  0  0  0  0  0
   39.3305   20.9279  -14.0087 H   0  0  0  0  0  0  0  0  0  0  0  0
   39.3282   21.8609  -12.5065 H   0  0  0  0  0  0  0  0  0  0  0  0
   39.0902   23.9741  -13.8185 H   0  0  0  0  0  0  0  0  0  0  0  0
   39.0903   23.0418  -15.3211 H   0  0  0  0  0  0  0  0  0  0  0  0
   41.3560   22.1462  -14.7664 H   0  0  0  0  0  0  0  0  0  0  0  0
   41.3560   23.0764  -13.2624 H   0  0  0  0  0  0  0  0  0  0  0  0
   41.1169   25.1922  -14.5710 H   0  0  0  0  0  0  0  0  0  0  0  0
   41.1169   24.2620  -16.0750 H   0  0  0  0  0  0  0  0  0  0  0  0
   43.3827   23.3650  -15.5202 H   0  0  0  0  0  0  0  0  0  0  0  0
   43.3827   24.2952  -14.0163 H   0  0  0  0  0  0  0  0  0  0  0  0
   43.1436   26.4110  -15.3249 H   0  0  0  0  0  0  0  0  0  0  0  0
   43.1435   25.4808  -16.8288 H   0  0  0  0  0  0  0  0  0  0  0  0
   45.4093   24.5838  -16.2741 H   0  0  0  0  0  0  0  0  0  0  0  0
   45.4093   25.5140  -14.7701 H   0  0  0  0  0  0  0  0  0  0  0  0
   45.1702   27.6297  -16.0787 H   0  0  0  0  0  0  0  0  0  0  0  0
   45.1702   26.6995  -17.5827 H   0  0  0  0  0  0  0  0  0  0  0  0
   47.4360   25.8026  -17.0279 H   0  0  0  0  0  0  0  0  0  0  0  0
   47.4360   26.7328  -15.5239 H   0  0  0  0  0  0  0  0  0  0  0  0
   47.1969   28.8485  -16.8325 H   0  0  0  0  0  0  0  0  0  0  0  0
   47.1969   27.9183  -18.3365 H   0  0  0  0  0  0  0  0  0  0  0  0
   49.4627   27.0213  -17.7817 H   0  0  0  0  0  0  0  0  0  0  0  0
   49.4626   27.9515  -16.2778 H   0  0  0  0  0  0  0  0  0  0  0  0
   49.2224   30.0673  -17.5872 H   0  0  0  0  0  0  0  0  0  0  0  0
   49.2247   29.1363  -19.0908 H   0  0  0  0  0  0  0  0  0  0  0  0
   51.4905   28.2412  -18.5330 H   0  0  0  0  0  0  0  0  0  0  0  0
   51.4881   29.1721  -17.0295 H   0  0  0  0  0  0  0  0  0  0  0  0
   51.2479   31.2871  -18.3402 H   0  0  0  0  0  0  0  0  0  0  0  0
   51.2525   30.3554  -19.8433 H   0  0  0  0  0  0  0  0  0  0  0  0
   53.5184   29.4615  -19.2813 H   0  0  0  0  0  0  0  0  0  0  0  0
   53.5136   30.3952  -17.7795 H   0  0  0  0  0  0  0  0  0  0  0  0
   53.2733   32.5075  -19.0945 H   0  0  0  0  0  0  0  0  0  0  0  0
   53.2804   31.5731  -20.5958 H   0  0  0  0  0  0  0  0  0  0  0  0
   55.5461   30.6831  -20.0321 H   0  0  0  0  0  0  0  0  0  0  0  0
   55.5391   31.6155  -18.5295 H   0  0  0  0  0  0  0  0  0  0  0  0
   55.2989   33.7288  -19.8428 H   0  0  0  0  0  0  0  0  0  0  0  0
   55.3082   32.7957  -21.3449 H   0  0  0  0  0  0  0  0  0  0  0  0
   57.5739   31.9055  -20.7769 H   0  0  0  0  0  0  0  0  0  0  0  0
   57.5645   32.8407  -19.2761 H   0  0  0  0  0  0  0  0  0  0  0  0
   57.3266   34.9515  -20.5919 H   0  0  0  0  0  0  0  0  0  0  0  0
   57.3337   34.0170  -22.0932 H   0  0  0  0  0  0  0  0  0  0  0  0
   59.5994   33.1264  -21.5282 H   0  0  0  0  0  0  0  0  0  0  0  0
   59.5924   34.0608  -20.0269 H   0  0  0  0  0  0  0  0  0  0  0  0
   59.3545   36.1724  -21.3415 H   0  0  0  0  0  0  0  0  0  0  0  0
   59.3592   35.2387  -22.8432 H   0  0  0  0  0  0  0  0  0  0  0  0
   61.6250   34.3462  -22.2812 H   0  0  0  0  0  0  0  0  0  0  0  0
   61.6203   35.2800  -20.7794 H   0  0  0  0  0  0  0  0  0  0  0  0
   61.3812   37.3923  -22.0936 H   0  0  0  0  0  0  0  0  0  0  0  0
   61.3859   36.4586  -23.5953 H   0  0  0  0  0  0  0  0  0  0  0  0
   63.6518   35.5660  -23.0333 H   0  0  0  0  0  0  0  0  0  0  0  0
   63.6471   36.4998  -21.5316 H   0  0  0  0  0  0  0  0  0  0  0  0
   63.4080   38.6122  -22.8458 H   0  0  0  0  0  0  0  0  0  0  0  0
   63.4127   37.6785  -24.3475 H   0  0  0  0  0  0  0  0  0  0  0  0
   65.6787   36.7862  -23.7856 H   0  0  0  0  0  0  0  0  0  0  0  0
   65.6740   37.7199  -22.2839 H   0  0  0  0  0  0  0  0  0  0  0  0
   65.4360   39.8326  -23.5983 H   0  0  0  0  0  0  0  0  0  0  0  0
   65.4406   38.8990  -25.1000 H   0  0  0  0  0  0  0  0  0  0  0  0
   67.7074   38.0072  -24.5383 H   0  0  0  0  0  0  0  0  0  0  0  0
   67.7028   38.9409  -23.0368 H   0  0  0  0  0  0  0  0  0  0  0  0
   67.4708   41.0541  -24.3523 H   0  0  0  0  0  0  0  0  0  0  0  0
   67.4757   40.1209  -25.8527 H   0  0  0  0  0  0  0  0  0  0  0  0
   69.7454   39.2281  -25.2926 H   0  0  0  0  0  0  0  0  0  0  0  0
   69.7421   40.1633  -23.7895 H   0  0  0  0  0  0  0  0  0  0  0  0
   69.5162   42.2739  -25.1016 H   0  0  0  0  0  0  0  0  0  0  0  0
   69.5214   41.3379  -26.6070 H   0  0  0  0  0  0  0  0  0  0  0  0
   71.7240   40.5353  -26.0330 H   0  0  0  0  0  0  0  0  0  0  0  0
   71.4744   43.4567  -25.8137 H   0  0  0  0  0  0  0  0  0  0  0  0
   71.4557   42.5346  -27.3447 H   0  0  0  0  0  0  0  0  0  0  0  0
   73.5584   41.6663  -26.7481 H   0  0  0  0  0  0  0  0  0  0  0  0
   73.4204   44.5108  -26.5291 H   0  0  0  0  0  0  0  0  0  0  0  0
   75.4544   43.7393  -26.0149 H   0  0  0  0  0  0  0  0  0  0  0  0
   75.2465   42.4567  -28.5765 H   0  0  0  0  0  0  0  0  0  0  0  0
   77.3945   42.5071  -26.6628 H   0  0  0  0  0  0  0  0  0  0  0  0
   77.1912   41.2432  -29.2173 H   0  0  0  0  0  0  0  0  0  0  0  0
   79.3662   41.2605  -27.3269 H   0  0  0  0  0  0  0  0  0  0  0  0
   79.1245   39.2318  -28.4266 H   0  0  0  0  0  0  0  0  0  0  0  0
   79.3402   40.8304  -30.7764 H   0  0  0  0  0  0  0  0  0  0  0  0
   79.1576   38.0411  -30.3407 H   0  0  0  0  0  0  0  0  0  0  0  0
   80.4778   38.8449  -30.8337 H   0  0  0  0  0  0  0  0  0  0  0  0
  1  2  1  0  0  0  0
  1 82  1  0  0  0  0
  1 83  1  0  0  0  0
  2  3  1  0  0  0  0
  2 84  1  0  0  0  0
  2 85  1  0  0  0  0
  3  4  1  0  0  0  0
  3 86  1  0  0  0  0
  3 87  1  0  0  0  0
  4  5  1  0  0  0  0
  4 88  1  0  0  0  0
  4 89  1  0  0  0  0
  5  6  1  0  0  0  0
  5 90  1  0  0  0  0
  5 91  1  0  0  0  0
  6  7  1  0  0  0  0
  6 92  1  0  0  0  0
  6 93  1  0  0  0  0
  7  8  1  0  0  0  0
  7 94  1  0  0  0  0
  7 95  1  0  0  0  0
  8  9  1  0  0  0  0
  8 96  1  0  0  0  0
  8 97  1  0  0  0  0
  9 10  1  0  0  0  0
  9 98  1  0  0  0  0
  9 99  1  0  0  0  0
 10 11  1  0  0  0  0
 10100  1  0  0  0  0
 10101  1  0  0  0  0
 11 12  1  0  0  0  0
 11102  1  0  0  0  0
 11103  1  0  0  0  0
 12 13  1  0  0  0  0
 12104  1  0  0  0  0
 12105  1  0  0  0  0
 13 14  1  0  0  0  0
 13106  1  0  0  0  0
 13107  1  0  0  0  0
 14 15  1  0  0  0  0
 14108  1  0  0  0  0
 14109  1  0  0  0  0
 15 16  1  0  0  0  0
 15110  1  0  0  0  0
 15111  1  0  0  0  0
 16 17  1  0  0  0  0
 16112  1  0  0  0  0
 16113  1  0  0  0  0
 17 18  1  0  0  0  0
 17114  1  0  0  0  0
 17115  1  0  0  0  0
 18 19  1  0  0  0  0
 18116  1  0  0  0  0
 18117  1  0  0  0  0
 19 20  1  0  0  0  0
 19118  1  0  0  0  0
 19119  1  0  0  0  0
 20 21  1  0  0  0  0
 20120  1  0  0  0  0
 20121  1  0  0  0  0
 21 22  1  0  0  0  0
 21122  1  0  0  0  0
 21123  1  0  0  0  0
 22 23  1  0  0  0  0
 22124  1  0  0  0  0
 22125  1  0  0  0  0
 23 24  1  0  0  0  0
 23126  1  0  0  0  0
 23127  1  0  0  0  0
 24 25  1  0  0  0  0
 24128  1  0  0  0  0
 24129  1  0  0  0  0
 25 26  1  0  0  0  0
 25130  1  0  0  0  0
 25131  1  0  0  0  0
 26 27  1  0  0  0  0
 26132  1  0  0  0  0
 26133  1  0  0  0  0
 27 28  1  0  0  0  0
 27134  1  0  0  0  0
 27135  1  0  0  0  0
 28 29  1  0  0  0  0
 28136  1  0  0  0  0
 28137  1  0  0  0  0
 29 30  1  0  0  0  0
 29138  1  0  0  0  0
 29139  1  0  0  0  0
 30 31  1  0  0  0  0
 30140  1  0  0  0  0
 30141  1  0  0  0  0
 31 32  1  0  0  0  0
 31142  1  0  0  0  0
 31143  1  0  0  0  0
 32 33  1  0  0  0  0
 32144  1  0  0  0  0
 32145  1  0  0  0  0
 33 34  1  0  0  0  0
 33146  1  0  0  0  0
 33147  1  0  0  0  0
 34 35  1  0  0  0  0
 34148  1  0  0  0  0
 34149  1  0  0  0  0
 35 36  1  0  0  0  0
 35150  1  0  0  0  0
 35151  1  0  0  0  0
 36 37  1  0  0  0  0
 36152  1  0  0  0  0
 36153  1  0  0  0  0
 37 38  1  0  0  0  0
 37154  1  0  0  0  0
 37155  1  0  0  0  0
 38 39  1  0  0  0  0
 38156  1  0  0  0  0
 38157  1  0  0  0  0
 39 40  1  0  0  0  0
 39158  1  0  0  0  0
 39159  1  0  0  0  0
 40 41  1  0  0  0  0
 40160  1  0  0  0  0
 40161  1  0  0  0  0
 41 42  1  0  0  0  0
 41162  1  0  0  0  0
 41163  1  0  0  0  0
 42 43  1  0  0  0  0
 42164  1  0  0  0  0
 42165  1  0  0  0  0
 43 44  1  0  0  0  0
 43166  1  0  0  0  0
 43167  1  0  0  0  0
 44 45  1  0  0  0  0
 44168  1  0  0  0  0
 44169  1  0  0  0  0
 45 46  1  0  0  0  0
 45170  1  0  0  0  0
 45171  1  0  0  0  0
 46 47  1  0  0  0  0
 46172  1  0  0  0  0
 46173  1  0  0  0  0
 47 48  1  0  0  0  0
 47174  1  0  0  0  0
 47175  1  0  0  0  0
 48 49  1  0  0  0  0
 48176  1  0  0  0  0
 48177  1  0  0  0  0
 49 50  1  0  0  0  0
 49178  1  0  0  0  0
 49179  1  0  0  0  0
 50 51  1  0  0  0  0
 50180  1  0  0  0  0
 50181  1  0  0  0  0
 51 52  1  0  0  0  0
 51182  1  0  0  0  0
 51183  1  0  0  0  0
 52 53  1  0  0  0  0
 52184  1  0  0  0  0
 52185  1  0  0  0  0
 53 54  1  0  0  0  0
 53186  1  0  0  0  0
 53187  1  0  0  0  0
 54 55  1  0  0  0  0
 54188  1  0  0  0  0
 54189  1  0  0  0  0
 55 56  1  0  0  0  0
 55190  1  0  0  0  0
 55191  1  0  0  0  0
 56 57  1  0  0  0  0
 56192  1  0  0  0  0
 56193  1  0  0  0  0
 57 58  1  0  0  0  0
 57194  1  0  0  0  0
 57195  1  0  0  0  0
 58 59  1  0  0  0  0
 58196  1  0  0  0  0
 58197  1  0  0  0  0
 59 60  1  0  0  0  0
 59198  1  0  0  0  0
 59199  1  0  0  0  0
 60 61  1  0  0  0  0
 60200  1  0  0  0  0
 60201  1  0  0  0  0
 61 62  1  0  0  0  0
 61202  1  0  0  0  0
 61203  1  0  0  0  0
 62 63  1  0  0  0  0
 62204  1  0  0  0  0
 62205  1  0  0  0  0
 63 64  1  0  0  0  0
 63206  1  0  0  0  0
 63207  1  0  0  0  0
 64 65  1  0  0  0  0
 64208  1  0  0  0  0
 64209  1  0  0  0  0
 65 66  1  0  0  0  0
 65210  1  0  0  0  0
 65211  1  0  0  0  0
 66 67  1  0  0  0  0
 66212  1  0  0  0  0
 66213  1  0  0  0  0
 67 68  1  0  0  0  0
 67214  1  0  0  0  0
 67215  1  0  0  0  0
 68 69  1  0  0  0  0
 68216  1  0  0  0  0
 68217  1  0  0  0  0
 69 70  1  0  0  0  0
 69218  1  0  0  0  0
 69219  1  0  0  0  0
 70 71  1  0  0  0  0
 70220  1  0  0  0  0
 71 72  1  0  0  0  0
 71221  1  0  0  0  0
 71222  1  0  0  0  0
 72 73  1  0  0  0  0
 72223  1  0  0  0  0
 73 74  1  0  0  0  0
 73224  1  0  0  0  0
 74 75  1  0  0  0  0
 74225  1  0  0  0  0
 75 76  1  0  0  0  0
 75226  1  0  0  0  0
 76 77  1  0  0  0  0
 76227  1  0  0  0  0
 77 78  1  0  0  0  0
 77228  1  0  0  0  0
 78 79  1  0  0  0  0
 78229  1  0  0  0  0
 79 80  1  0  0  0  0
 79230  1  0  0  0  0
 80 81  1  0  0  0  0
 80231  1  0  0  0  0
 81232  1  0  0  0  0
 81233  1  0  0  0  0
M  END
$$$$
