
 OpenBabel04232216433D

 15 15  0  0  0  0  0  0  0  0999 V2000
   -1.1152   -1.2059    0.0022 C   0  0  0  0  0  0  0  0  0  0  0  0
   -1.8131    0.0002    0.0020 C   0  0  0  0  0  0  0  0  0  0  0  0
   -1.1160    1.2070    0.0032 C   0  0  0  0  0  0  0  0  0  0  0  0
    0.2799    1.2085    0.0021 C   0  0  0  0  0  0  0  0  0  0  0  0
    0.9902    0.0022   -0.0002 C   0  0  0  0  0  0  0  0  0  0  0  0
    2.4898   -0.0082   -0.0124 C   0  0  0  0  0  0  0  0  0  0  0  0
    0.2809   -1.2059    0.0014 C   0  0  0  0  0  0  0  0  0  0  0  0
   -1.6578   -2.1475    0.0015 H   0  0  0  0  0  0  0  0  0  0  0  0
   -2.8999    0.0001    0.0003 H   0  0  0  0  0  0  0  0  0  0  0  0
   -1.6591    2.1484    0.0038 H   0  0  0  0  0  0  0  0  0  0  0  0
    0.8088    2.1587    0.0017 H   0  0  0  0  0  0  0  0  0  0  0  0
    2.8979    1.0078    0.0029 H   0  0  0  0  0  0  0  0  0  0  0  0
    2.8555   -0.5028   -0.9181 H   0  0  0  0  0  0  0  0  0  0  0  0
    2.8725   -0.5362    0.8670 H   0  0  0  0  0  0  0  0  0  0  0  0
    0.8137   -2.1537    0.0002 H   0  0  0  0  0  0  0  0  0  0  0  0
  1  2  1  0  0  0  0
  1  7  2  0  0  0  0
  1  8  1  0  0  0  0
  2  3  2  0  0  0  0
  2  9  1  0  0  0  0
  3  4  1  0  0  0  0
  3 10  1  0  0  0  0
  4  5  2  0  0  0  0
  4 11  1  0  0  0  0
  5  6  1  0  0  0  0
  5  7  1  0  0  0  0
  6 12  1  0  0  0  0
  6 13  1  0  0  0  0
  6 14  1  0  0  0  0
  7 15  1  0  0  0  0
M  END
$$$$
