
 OpenBabel04232216463D

 64 65  0  0  0  0  0  0  0  0999 V2000
    6.5979   -0.2848    3.0538 C   0  0  0  0  0  0  0  0  0  0  0  0
    7.5093   -1.4383    2.4358 C   0  0  0  0  0  0  0  0  0  0  0  0
    6.6424   -1.8980    1.4933 C   0  0  0  0  0  0  0  0  0  0  0  0
    6.4629   -1.5943    0.0154 C   0  0  0  0  0  0  0  0  0  0  0  0
    6.0914   -0.1986   -0.4396 C   0  0  0  0  0  0  0  0  0  0  0  0
    6.4332   -2.5070   -0.9026 N   0  0  0  0  0  0  0  0  0  0  0  0
    7.2681   -3.6375   -0.5268 C   0  0  0  0  0  0  0  0  0  0  0  0
    6.6094   -4.6137    0.4728 C   0  0  0  0  0  0  0  0  0  0  0  0
    7.5667   -4.7814    1.6218 C   0  0  0  0  0  0  0  0  0  0  0  0
    8.1567   -6.1171    1.9305 C   0  0  0  0  0  3  0  0  0  0  0  0
    9.5617   -5.9392    2.3297 C   0  0  0  0  0  0  0  0  0  0  0  0
   10.1401   -5.7675    3.7287 C   0  0  0  0  0  0  0  0  0  0  0  0
   10.0055   -6.4960    4.6868 O   0  0  0  0  0  0  0  0  0  0  0  0
   11.1630   -4.6685    3.6993 C   0  0  0  0  0  0  0  0  0  0  0  0
   10.3536   -3.4926    3.5066 C   0  0  0  0  0  0  0  0  0  0  0  0
   10.0428   -2.0968    2.6803 C   0  0  0  0  0  0  0  0  0  0  0  0
   11.4297   -1.3895    2.3533 C   0  0  0  0  0  0  0  0  0  0  0  0
   12.3007   -1.7494    1.1038 C   0  0  0  0  0  0  0  0  0  0  0  0
   13.3250   -2.9308    1.0750 C   0  0  0  0  0  0  0  0  0  0  0  0
   13.4180   -3.5367   -0.3581 C   0  0  0  0  0  0  0  0  0  0  0  0
   14.4055   -4.7009   -0.6710 C   0  0  0  0  0  0  0  0  0  0  0  0
   13.7455   -6.0252   -1.1421 C   0  0  0  0  0  0  0  0  0  0  0  0
   13.5603   -7.0471   -0.0259 C   0  0  0  0  0  0  0  0  0  0  0  0
   12.5147   -6.5313    0.9567 C   0  0  0  0  0  0  0  0  0  0  0  0
   12.6441   -6.7900    2.4583 C   0  0  0  0  0  0  0  0  0  0  0  0
   12.5123   -5.4674    3.3900 C   0  0  0  0  0  0  0  0  0  0  0  0
    8.9736   -1.3212    2.3411 N   0  0  0  0  0  0  0  0  0  0  0  0
    5.8235   -0.6636    3.7442 H   0  0  0  0  0  0  0  0  0  0  0  0
    5.9505    0.1672    2.2623 H   0  0  0  0  0  0  0  0  0  0  0  0
    7.1012    0.5885    3.4672 H   0  0  0  0  0  0  0  0  0  0  0  0
    5.5966   -1.9867    1.8334 H   0  0  0  0  0  0  0  0  0  0  0  0
    5.0066   -0.0716   -0.5212 H   0  0  0  0  0  0  0  0  0  0  0  0
    6.5233   -0.0561   -1.4369 H   0  0  0  0  0  0  0  0  0  0  0  0
    6.5166    0.5606    0.2130 H   0  0  0  0  0  0  0  0  0  0  0  0
    8.1984   -3.1625   -0.1670 H   0  0  0  0  0  0  0  0  0  0  0  0
    7.6060   -4.1699   -1.4118 H   0  0  0  0  0  0  0  0  0  0  0  0
    6.3772   -5.5605   -0.0256 H   0  0  0  0  0  0  0  0  0  0  0  0
    5.6721   -4.2305    0.9068 H   0  0  0  0  0  0  0  0  0  0  0  0
    7.2223   -4.3533    2.5649 H   0  0  0  0  0  0  0  0  0  0  0  0
    8.3945   -4.1233    1.3398 H   0  0  0  0  0  0  0  0  0  0  0  0
    7.6422   -7.0631    1.8880 H   0  0  0  0  0  0  0  0  0  0  0  0
    9.5862   -4.8822    2.1882 H   0  0  0  0  0  0  0  0  0  0  0  0
   10.2496   -6.1074    1.5173 H   0  0  0  0  0  0  0  0  0  0  0  0
    9.7822   -3.3162    4.4227 H   0  0  0  0  0  0  0  0  0  0  0  0
   12.0492   -1.4716    3.2640 H   0  0  0  0  0  0  0  0  0  0  0  0
   11.1875   -0.3362    2.2445 H   0  0  0  0  0  0  0  0  0  0  0  0
   12.9379   -0.8667    0.9886 H   0  0  0  0  0  0  0  0  0  0  0  0
   11.6537   -1.7985    0.2304 H   0  0  0  0  0  0  0  0  0  0  0  0
   13.0447   -3.6855    1.7885 H   0  0  0  0  0  0  0  0  0  0  0  0
   14.3208   -2.5751    1.3775 H   0  0  0  0  0  0  0  0  0  0  0  0
   13.7035   -2.7096   -1.0172 H   0  0  0  0  0  0  0  0  0  0  0  0
   12.4081   -3.8364   -0.6560 H   0  0  0  0  0  0  0  0  0  0  0  0
   15.1169   -4.8910    0.1400 H   0  0  0  0  0  0  0  0  0  0  0  0
   15.0097   -4.3703   -1.5282 H   0  0  0  0  0  0  0  0  0  0  0  0
   14.3597   -6.4856   -1.9300 H   0  0  0  0  0  0  0  0  0  0  0  0
   12.7699   -5.8322   -1.6095 H   0  0  0  0  0  0  0  0  0  0  0  0
   14.5530   -7.2330    0.4786 H   0  0  0  0  0  0  0  0  0  0  0  0
   13.2640   -7.9997   -0.4242 H   0  0  0  0  0  0  0  0  0  0  0  0
   11.5900   -6.9819    0.5822 H   0  0  0  0  0  0  0  0  0  0  0  0
   12.4057   -5.4651    0.8482 H   0  0  0  0  0  0  0  0  0  0  0  0
   13.6095   -7.2788    2.6591 H   0  0  0  0  0  0  0  0  0  0  0  0
   11.8984   -7.5445    2.7481 H   0  0  0  0  0  0  0  0  0  0  0  0
   13.4038   -4.8559    3.2287 H   0  0  0  0  0  0  0  0  0  0  0  0
   12.7306   -5.9050    4.3776 H   0  0  0  0  0  0  0  0  0  0  0  0
  1  2  1  0  0  0  0
  1 28  1  0  0  0  0
  1 29  1  0  0  0  0
  1 30  1  0  0  0  0
  2  3  2  3  0  0  0
  2 27  1  0  0  0  0
  3  4  1  0  0  0  0
  3 31  1  0  0  0  0
  4  5  1  0  0  0  0
  4  6  2  3  0  0  0
  5 32  1  0  0  0  0
  5 33  1  0  0  0  0
  5 34  1  0  0  0  0
  6  7  1  0  0  0  0
  7  8  1  0  0  0  0
  7 35  1  0  0  0  0
  7 36  1  0  0  0  0
  8  9  1  0  0  0  0
  8 37  1  0  0  0  0
  8 38  1  0  0  0  0
  9 10  1  0  0  0  0
  9 39  1  0  0  0  0
  9 40  1  0  0  0  0
 10 11  1  0  0  0  0
 10 41  1  0  0  0  0
 11 12  1  0  0  0  0
 11 42  1  0  0  0  0
 11 43  1  0  0  0  0
 12 13  2  0  0  0  0
 12 14  1  0  0  0  0
 14 15  2  3  0  0  0
 14 26  1  0  0  0  0
 15 16  1  0  0  0  0
 15 44  1  0  0  0  0
 16 17  1  0  0  0  0
 16 27  2  3  0  0  0
 17 18  1  0  0  0  0
 17 45  1  0  0  0  0
 17 46  1  0  0  0  0
 18 19  1  0  0  0  0
 18 47  1  0  0  0  0
 18 48  1  0  0  0  0
 19 20  1  0  0  0  0
 19 49  1  0  0  0  0
 19 50  1  0  0  0  0
 20 21  1  0  0  0  0
 20 51  1  0  0  0  0
 20 52  1  0  0  0  0
 21 22  1  0  0  0  0
 21 53  1  0  0  0  0
 21 54  1  0  0  0  0
 22 23  1  0  0  0  0
 22 55  1  0  0  0  0
 22 56  1  0  0  0  0
 23 24  1  0  0  0  0
 23 57  1  0  0  0  0
 23 58  1  0  0  0  0
 24 25  1  0  0  0  0
 24 59  1  0  0  0  0
 24 60  1  0  0  0  0
 25 26  1  0  0  0  0
 25 61  1  0  0  0  0
 25 62  1  0  0  0  0
 26 63  1  0  0  0  0
 26 64  1  0  0  0  0
M  END
$$$$
