
 OpenBabel04232216583D

110109  0  0  0  0  0  0  0  0999 V2000
   32.3856  -33.6654   11.8745 N   0  0  0  0  0  0  0  0  0  0  0  0
   31.6346  -34.1031   10.7365 N   0  0  0  0  0  0  0  0  0  0  0  0
   30.2447  -33.6400   10.8537 C   0  0  0  0  0  0  0  0  0  0  0  0
   30.1787  -32.0993   10.8877 C   0  0  0  0  0  0  0  0  0  0  0  0
   30.7885  -31.5261    9.6267 C   0  0  0  0  0  0  0  0  0  0  0  0
   30.7264  -30.0766    9.6732 N   0  0  0  0  0  0  0  0  0  0  0  0
   31.3215  -29.6017    8.5119 N   0  0  0  0  0  0  0  0  0  0  0  0
   31.2466  -28.2032    8.5713 N   0  0  0  0  0  0  0  0  0  0  0  0
   31.8375  -27.6861    7.4140 N   0  0  0  0  0  0  0  0  0  0  0  0
   31.1124  -28.0858    6.2255 N   0  0  0  0  0  0  0  0  0  0  0  0
   29.7319  -27.6875    6.3011 N   0  0  0  0  0  0  0  0  0  0  0  0
   29.5972  -26.2695    6.3370 N   0  0  0  0  0  0  0  0  0  0  0  0
   30.1545  -25.6478    5.1605 N   0  0  0  0  0  0  0  0  0  0  0  0
   29.5381  -26.1638    3.9922 N   0  0  0  0  0  0  0  0  0  0  0  0
   28.1399  -25.8574    4.0657 N   0  0  0  0  0  0  0  0  0  0  0  0
   28.0009  -24.4063    4.1641 N   0  0  0  0  0  0  0  0  0  0  0  0
   28.6107  -23.7666    3.0165 N   0  0  0  0  0  0  0  0  0  0  0  0
   27.9799  -24.1934    1.7872 N   0  0  0  0  0  0  0  0  0  0  0  0
   26.5762  -23.8681    1.7596 N   0  0  0  0  0  0  0  0  0  0  0  0
   26.3280  -22.4568    1.8607 N   0  0  0  0  0  0  0  0  0  0  0  0
   26.9482  -21.5687    0.6020 S   0  0  0  0  0  0  0  0  0  0  0  0
   26.2962  -22.1374   -0.8162 N   0  0  0  0  0  0  0  0  0  0  0  0
   24.6660  -21.8910   -0.9467 S   0  0  0  0  0  0  0  0  0  0  0  0
   24.3758  -20.2735   -0.8036 N   0  0  0  0  0  0  0  0  0  0  0  0
   24.9632  -19.3287   -2.0372 S   0  0  0  0  0  0  0  0  0  0  0  0
   26.6517  -19.3775   -2.0163 N   0  0  0  0  0  0  0  0  0  0  0  0
   27.3050  -18.4940   -3.2624 S   0  0  0  0  0  0  0  0  0  0  0  0
   28.9783  -18.6093   -3.2231 N   0  0  0  0  0  0  0  0  0  0  0  0
   29.5173  -20.1594   -3.4494 S   0  0  0  0  0  0  0  0  0  0  0  0
   31.5865  -20.0013   -3.4228 S   0  0  0  0  0  0  0  0  0  0  0  0
   32.2261  -19.2818   -1.5792 S   0  0  0  0  0  0  0  0  0  0  0  0
   31.6519  -20.5575   -0.0338 S   0  0  0  0  0  0  0  0  0  0  0  0
   32.2949  -19.7232    1.8027 S   0  0  0  0  0  0  0  0  0  0  0  0
   31.6451  -20.9728    3.3838 S   0  0  0  0  0  0  0  0  0  0  0  0
   32.3013  -20.1680    5.2282 S   0  0  0  0  0  0  0  0  0  0  0  0
   31.6454  -21.4253    6.7981 S   0  0  0  0  0  0  0  0  0  0  0  0
   32.2987  -20.6223    8.6408 S   0  0  0  0  0  0  0  0  0  0  0  0
   31.6423  -21.8800   10.2054 S   0  0  0  0  0  0  0  0  0  0  0  0
   32.2953  -21.0769   12.0453 S   0  0  0  0  0  0  0  0  0  0  0  0
   31.6388  -22.3343   13.6078 S   0  0  0  0  0  0  0  0  0  0  0  0
   32.2920  -21.5309   15.4463 S   0  0  0  0  0  0  0  0  0  0  0  0
   31.6354  -22.7882   17.0080 S   0  0  0  0  0  0  0  0  0  0  0  0
   32.2886  -21.9848   18.8460 S   0  0  0  0  0  0  0  0  0  0  0  0
   31.6320  -23.2422   20.4074 S   0  0  0  0  0  0  0  0  0  0  0  0
   32.2852  -22.4388   22.2452 S   0  0  0  0  0  0  0  0  0  0  0  0
   31.6286  -23.6961   23.8066 S   0  0  0  0  0  0  0  0  0  0  0  0
   32.2818  -22.8927   25.6444 S   0  0  0  0  0  0  0  0  0  0  0  0
   31.6252  -24.1500   27.2057 S   0  0  0  0  0  0  0  0  0  0  0  0
   32.2784  -23.3465   29.0435 S   0  0  0  0  0  0  0  0  0  0  0  0
   31.6219  -24.6039   30.6048 S   0  0  0  0  0  0  0  0  0  0  0  0
   32.2750  -23.8004   32.4426 S   0  0  0  0  0  0  0  0  0  0  0  0
   31.6185  -25.0578   34.0039 S   0  0  0  0  0  0  0  0  0  0  0  0
   32.2717  -24.2543   35.8417 S   0  0  0  0  0  0  0  0  0  0  0  0
   31.6151  -25.5117   37.4030 S   0  0  0  0  0  0  0  0  0  0  0  0
   32.2683  -24.7082   39.2408 S   0  0  0  0  0  0  0  0  0  0  0  0
   31.6117  -25.9655   40.8021 S   0  0  0  0  0  0  0  0  0  0  0  0
   32.2649  -25.1621   42.6399 S   0  0  0  0  0  0  0  0  0  0  0  0
   31.6083  -26.4194   44.2012 S   0  0  0  0  0  0  0  0  0  0  0  0
   32.2615  -25.6160   46.0390 S   0  0  0  0  0  0  0  0  0  0  0  0
   31.6049  -26.8733   47.6004 S   0  0  0  0  0  0  0  0  0  0  0  0
   32.2581  -26.0699   49.4381 S   0  0  0  0  0  0  0  0  0  0  0  0
   31.6015  -27.3272   50.9995 S   0  0  0  0  0  0  0  0  0  0  0  0
   32.2547  -26.5238   52.8373 S   0  0  0  0  0  0  0  0  0  0  0  0
   31.5982  -27.7811   54.3986 S   0  0  0  0  0  0  0  0  0  0  0  0
   32.2513  -26.9777   56.2363 S   0  0  0  0  0  0  0  0  0  0  0  0
   31.5948  -28.2350   57.7976 S   0  0  0  0  0  0  0  0  0  0  0  0
   32.2480  -27.4316   59.6354 S   0  0  0  0  0  0  0  0  0  0  0  0
   31.5914  -28.6889   61.1965 S   0  0  0  0  0  0  0  0  0  0  0  0
   32.2446  -27.8854   63.0341 S   0  0  0  0  0  0  0  0  0  0  0  0
   31.5880  -29.1427   64.5949 S   0  0  0  0  0  0  0  0  0  0  0  0
   32.2412  -28.3391   66.4317 S   0  0  0  0  0  0  0  0  0  0  0  0
   31.5846  -29.5962   67.9912 S   0  0  0  0  0  0  0  0  0  0  0  0
   32.2379  -28.7922   69.8259 S   0  0  0  0  0  0  0  0  0  0  0  0
   31.5811  -30.0492   71.3818 S   0  0  0  0  0  0  0  0  0  0  0  0
   32.2344  -29.2447   73.2113 S   0  0  0  0  0  0  0  0  0  0  0  0
   31.5763  -30.5015   74.7580 S   0  0  0  0  0  0  0  0  0  0  0  0
   32.2308  -29.6942   76.5752 S   0  0  0  0  0  0  0  0  0  0  0  0
   31.5912  -30.9642   78.0992 S   0  0  0  0  0  0  0  0  0  0  0  0
   32.1873  -30.1238   79.9012 S   0  0  0  0  0  0  0  0  0  0  0  0
   31.5705  -31.4100   81.4029 S   0  0  0  0  0  0  0  0  0  0  0  0
   29.5147  -31.3999   81.3432 S   0  0  0  0  0  0  0  0  0  0  0  0
   33.3471  -33.9858   11.8004 H   0  0  0  0  0  0  0  0  0  0  0  0
   32.0230  -34.0111   12.7627 H   0  0  0  0  0  0  0  0  0  0  0  0
   31.6560  -35.1181   10.6489 H   0  0  0  0  0  0  0  0  0  0  0  0
   29.7712  -34.0626   11.7467 H   0  0  0  0  0  0  0  0  0  0  0  0
   29.6623  -34.0155    9.9982 H   0  0  0  0  0  0  0  0  0  0  0  0
   30.7053  -31.7445   11.7795 H   0  0  0  0  0  0  0  0  0  0  0  0
   29.1327  -31.7998   10.9978 H   0  0  0  0  0  0  0  0  0  0  0  0
   30.2225  -31.9017    8.7637 H   0  0  0  0  0  0  0  0  0  0  0  0
   31.8252  -31.8682    9.5150 H   0  0  0  0  0  0  0  0  0  0  0  0
   31.2719  -29.6873   10.4371 H   0  0  0  0  0  0  0  0  0  0  0  0
   30.7756  -29.8456    7.6886 H   0  0  0  0  0  0  0  0  0  0  0  0
   31.7217  -27.8958    9.4260 H   0  0  0  0  0  0  0  0  0  0  0  0
   32.8083  -27.9712    7.3364 H   0  0  0  0  0  0  0  0  0  0  0  0
   31.1547  -29.1111    6.1768 H   0  0  0  0  0  0  0  0  0  0  0  0
   29.2981  -28.0858    7.1457 H   0  0  0  0  0  0  0  0  0  0  0  0
   30.0822  -25.8837    7.1607 H   0  0  0  0  0  0  0  0  0  0  0  0
   31.1458  -25.8809    5.1304 H   0  0  0  0  0  0  0  0  0  0  0  0
   29.6414  -27.1722    4.0297 H   0  0  0  0  0  0  0  0  0  0  0  0
   27.8182  -26.2955    4.9384 H   0  0  0  0  0  0  0  0  0  0  0  0
   28.5421  -24.1313    5.0099 H   0  0  0  0  0  0  0  0  0  0  0  0
   29.6126  -24.0296    2.9916 H   0  0  0  0  0  0  0  0  0  0  0  0
   28.1011  -25.2082    1.6898 H   0  0  0  0  0  0  0  0  0  0  0  0
   26.1107  -24.3433    2.5543 H   0  0  0  0  0  0  0  0  0  0  0  0
   26.6761  -22.1054    2.7663 H   0  0  0  0  0  0  0  0  0  0  0  0
   26.5375  -23.1181   -0.9372 H   0  0  0  0  0  0  0  0  0  0  0  0
   24.6165  -19.9164    0.1173 H   0  0  0  0  0  0  0  0  0  0  0  0
   26.9162  -20.3322   -2.1234 H   0  0  0  0  0  0  0  0  0  0  0  0
   29.3350  -18.2141   -2.3596 H   0  0  0  0  0  0  0  0  0  0  0  0
   29.2147  -32.2428   82.3476 H   0  0  0  0  0  0  0  0  0  0  0  0
  1  2  1  0  0  0  0
  1 82  1  0  0  0  0
  1 83  1  0  0  0  0
  2  3  1  0  0  0  0
  2 84  1  0  0  0  0
  3  4  1  0  0  0  0
  3 85  1  0  0  0  0
  3 86  1  0  0  0  0
  4  5  1  0  0  0  0
  4 87  1  0  0  0  0
  4 88  1  0  0  0  0
  5  6  1  0  0  0  0
  5 89  1  0  0  0  0
  5 90  1  0  0  0  0
  6  7  1  0  0  0  0
  6 91  1  0  0  0  0
  7  8  1  0  0  0  0
  7 92  1  0  0  0  0
  8  9  1  0  0  0  0
  8 93  1  0  0  0  0
  9 10  1  0  0  0  0
  9 94  1  0  0  0  0
 10 11  1  0  0  0  0
 10 95  1  0  0  0  0
 11 12  1  0  0  0  0
 11 96  1  0  0  0  0
 12 13  1  0  0  0  0
 12 97  1  0  0  0  0
 13 14  1  0  0  0  0
 13 98  1  0  0  0  0
 14 15  1  0  0  0  0
 14 99  1  0  0  0  0
 15 16  1  0  0  0  0
 15100  1  0  0  0  0
 16 17  1  0  0  0  0
 16101  1  0  0  0  0
 17 18  1  0  0  0  0
 17102  1  0  0  0  0
 18 19  1  0  0  0  0
 18103  1  0  0  0  0
 19 20  1  0  0  0  0
 19104  1  0  0  0  0
 20 21  1  0  0  0  0
 20105  1  0  0  0  0
 21 22  1  0  0  0  0
 22 23  1  0  0  0  0
 22106  1  0  0  0  0
 23 24  1  0  0  0  0
 24 25  1  0  0  0  0
 24107  1  0  0  0  0
 25 26  1  0  0  0  0
 26 27  1  0  0  0  0
 26108  1  0  0  0  0
 27 28  1  0  0  0  0
 28 29  1  0  0  0  0
 28109  1  0  0  0  0
 29 30  1  0  0  0  0
 30 31  1  0  0  0  0
 31 32  1  0  0  0  0
 32 33  1  0  0  0  0
 33 34  1  0  0  0  0
 34 35  1  0  0  0  0
 35 36  1  0  0  0  0
 36 37  1  0  0  0  0
 37 38  1  0  0  0  0
 38 39  1  0  0  0  0
 39 40  1  0  0  0  0
 40 41  1  0  0  0  0
 41 42  1  0  0  0  0
 42 43  1  0  0  0  0
 43 44  1  0  0  0  0
 44 45  1  0  0  0  0
 45 46  1  0  0  0  0
 46 47  1  0  0  0  0
 47 48  1  0  0  0  0
 48 49  1  0  0  0  0
 49 50  1  0  0  0  0
 50 51  1  0  0  0  0
 51 52  1  0  0  0  0
 52 53  1  0  0  0  0
 53 54  1  0  0  0  0
 54 55  1  0  0  0  0
 55 56  1  0  0  0  0
 56 57  1  0  0  0  0
 57 58  1  0  0  0  0
 58 59  1  0  0  0  0
 59 60  1  0  0  0  0
 60 61  1  0  0  0  0
 61 62  1  0  0  0  0
 62 63  1  0  0  0  0
 63 64  1  0  0  0  0
 64 65  1  0  0  0  0
 65 66  1  0  0  0  0
 66 67  1  0  0  0  0
 67 68  1  0  0  0  0
 68 69  1  0  0  0  0
 69 70  1  0  0  0  0
 70 71  1  0  0  0  0
 71 72  1  0  0  0  0
 72 73  1  0  0  0  0
 73 74  1  0  0  0  0
 74 75  1  0  0  0  0
 75 76  1  0  0  0  0
 76 77  1  0  0  0  0
 77 78  1  0  0  0  0
 78 79  1  0  0  0  0
 79 80  1  0  0  0  0
 80 81  1  0  0  0  0
 81110  1  0  0  0  0
M  END
$$$$
