
 OpenBabel04232216593D

 75 75  0  0  1  0  0  0  0  0999 V2000
    4.1220   -3.2707    3.1011 O   0  0  0  0  0  0  0  0  0  0  0  0
    4.4586   -2.1999    2.5921 C   0  0  0  0  0  0  0  0  0  0  0  0
    5.4364   -2.1525    1.4329 C   0  0  0  0  0  0  0  0  0  0  0  0
    4.8048   -2.5868    0.1074 C   0  0  0  0  0  0  0  0  0  0  0  0
    5.0226   -1.5560   -1.0152 C   0  0  0  0  0  0  0  0  0  0  0  0
    3.7397   -1.1913   -1.7785 C   0  0  0  0  0  0  0  0  0  0  0  0
    3.5202    0.3289   -1.8850 C   0  0  0  0  0  0  0  0  0  0  0  0
    2.1449    0.7779   -1.3689 C   0  0  0  0  0  0  0  0  0  0  0  0
    2.2260    1.7781   -0.2066 C   0  0  0  0  0  0  0  0  0  0  0  0
    1.4056    1.3704    1.0267 C   0  0  0  0  0  0  0  0  0  0  0  0
    2.2614    0.9461    2.2317 C   0  0  0  0  0  0  0  0  0  0  0  0
    2.6206   -0.5101    2.3562 C   0  0  3  0  0  3  0  0  0  0  0  0
    1.6363   -1.5654    2.0143 C   0  0  0  0  0  0  0  0  0  0  0  0
    1.4150   -1.7973    0.8326 O   0  0  0  0  0  0  0  0  0  0  0  0
    0.9370   -2.3444    3.1143 C   0  0  0  0  0  0  0  0  0  0  0  0
    0.0693   -1.4780    4.0206 C   0  0  0  0  0  0  0  0  0  0  0  0
   -1.0036   -0.6744    3.2836 C   0  0  0  0  0  0  0  0  0  0  0  0
   -1.9940   -1.5626    2.5389 C   0  0  0  0  0  0  0  0  0  0  0  0
   -3.0237   -0.7255    1.7949 C   0  0  0  0  0  0  0  0  0  0  0  0
   -4.0021   -1.6298    1.0544 C   0  0  0  0  0  0  0  0  0  0  0  0
   -5.0324   -0.7905    0.3133 C   0  0  0  0  0  0  0  0  0  0  0  0
   -6.0262   -1.6766   -0.4245 C   0  0  0  0  0  0  0  0  0  0  0  0
   -7.0512   -0.8185   -1.1549 C   0  0  0  0  0  0  0  0  0  0  0  0
   -8.0551   -1.6865   -1.9023 C   0  0  0  0  0  0  0  0  0  0  0  0
   -9.0781   -0.8186   -2.6274 C   0  0  0  0  0  0  0  0  0  0  0  0
  -10.0834   -1.6767   -3.3879 C   0  0  0  0  0  0  0  0  0  0  0  0
  -11.0989   -0.8095   -4.1101 C   0  0  0  0  0  0  0  0  0  0  0  0
    3.8732   -0.8818    3.0811 C   0  0  0  0  0  0  0  0  0  0  0  0
    6.2661   -2.8213    1.6891 H   0  0  0  0  0  0  0  0  0  0  0  0
    5.8650   -1.1470    1.3858 H   0  0  0  0  0  0  0  0  0  0  0  0
    3.7469   -2.8313    0.2352 H   0  0  0  0  0  0  0  0  0  0  0  0
    5.2837   -3.5250   -0.2027 H   0  0  0  0  0  0  0  0  0  0  0  0
    5.7323   -1.9863   -1.7358 H   0  0  0  0  0  0  0  0  0  0  0  0
    5.5125   -0.6589   -0.6282 H   0  0  0  0  0  0  0  0  0  0  0  0
    2.8683   -1.6896   -1.3478 H   0  0  0  0  0  0  0  0  0  0  0  0
    3.8259   -1.5905   -2.7940 H   0  0  0  0  0  0  0  0  0  0  0  0
    3.5861    0.6008   -2.9475 H   0  0  0  0  0  0  0  0  0  0  0  0
    4.3257    0.8877   -1.3980 H   0  0  0  0  0  0  0  0  0  0  0  0
    1.5113   -0.0765   -1.1182 H   0  0  0  0  0  0  0  0  0  0  0  0
    1.6286    1.2796   -2.1985 H   0  0  0  0  0  0  0  0  0  0  0  0
    1.8093    2.7271   -0.5718 H   0  0  0  0  0  0  0  0  0  0  0  0
    3.2599    2.0067    0.0711 H   0  0  0  0  0  0  0  0  0  0  0  0
    0.6515    0.6211    0.7707 H   0  0  0  0  0  0  0  0  0  0  0  0
    0.8333    2.2539    1.3401 H   0  0  0  0  0  0  0  0  0  0  0  0
    1.7361    1.2414    3.1494 H   0  0  0  0  0  0  0  0  0  0  0  0
    3.1858    1.5411    2.2299 H   0  0  0  0  0  0  0  0  0  0  0  0
    1.6731   -2.8927    3.7061 H   0  0  0  0  0  0  0  0  0  0  0  0
    0.3242   -3.1131    2.6271 H   0  0  0  0  0  0  0  0  0  0  0  0
    0.7022   -0.7873    4.5865 H   0  0  0  0  0  0  0  0  0  0  0  0
   -0.4229   -2.1277    4.7558 H   0  0  0  0  0  0  0  0  0  0  0  0
   -0.5377    0.0230    2.5829 H   0  0  0  0  0  0  0  0  0  0  0  0
   -1.5420   -0.0562    4.0114 H   0  0  0  0  0  0  0  0  0  0  0  0
   -2.4955   -2.2306    3.2483 H   0  0  0  0  0  0  0  0  0  0  0  0
   -1.4745   -2.1943    1.8098 H   0  0  0  0  0  0  0  0  0  0  0  0
   -2.5180   -0.0657    1.0789 H   0  0  0  0  0  0  0  0  0  0  0  0
   -3.5659   -0.0851    2.5006 H   0  0  0  0  0  0  0  0  0  0  0  0
   -4.5049   -2.2956    1.7656 H   0  0  0  0  0  0  0  0  0  0  0  0
   -3.4591   -2.2646    0.3438 H   0  0  0  0  0  0  0  0  0  0  0  0
   -4.5255   -0.1286   -0.3987 H   0  0  0  0  0  0  0  0  0  0  0  0
   -5.5682   -0.1504    1.0253 H   0  0  0  0  0  0  0  0  0  0  0  0
   -6.5335   -2.3392    0.2873 H   0  0  0  0  0  0  0  0  0  0  0  0
   -5.4946   -2.3149   -1.1409 H   0  0  0  0  0  0  0  0  0  0  0  0
   -6.5383   -0.1529   -1.8602 H   0  0  0  0  0  0  0  0  0  0  0  0
   -7.5775   -0.1802   -0.4334 H   0  0  0  0  0  0  0  0  0  0  0  0
   -8.5663   -2.3524   -1.1965 H   0  0  0  0  0  0  0  0  0  0  0  0
   -7.5285   -2.3220   -2.6247 H   0  0  0  0  0  0  0  0  0  0  0  0
   -8.5624   -0.1473   -3.3252 H   0  0  0  0  0  0  0  0  0  0  0  0
   -9.6050   -0.1863   -1.9016 H   0  0  0  0  0  0  0  0  0  0  0  0
  -10.6023   -2.3468   -2.6936 H   0  0  0  0  0  0  0  0  0  0  0  0
   -9.5589   -2.3068   -4.1166 H   0  0  0  0  0  0  0  0  0  0  0  0
  -11.6555   -0.1879   -3.4015 H   0  0  0  0  0  0  0  0  0  0  0  0
  -11.8146   -1.4354   -4.6514 H   0  0  0  0  0  0  0  0  0  0  0  0
  -10.6065   -0.1504   -4.8319 H   0  0  0  0  0  0  0  0  0  0  0  0
    4.6374   -0.1067    2.9536 H   0  0  0  0  0  0  0  0  0  0  0  0
    3.6933   -0.9558    4.1603 H   0  0  0  0  0  0  0  0  0  0  0  0
  1  2  2  0  0  0  0
  2  3  1  0  0  0  0
  2 28  1  0  0  0  0
  3  4  1  0  0  0  0
  3 29  1  0  0  0  0
  3 30  1  0  0  0  0
  4  5  1  0  0  0  0
  4 31  1  0  0  0  0
  4 32  1  0  0  0  0
  5  6  1  0  0  0  0
  5 33  1  0  0  0  0
  5 34  1  0  0  0  0
  6  7  1  0  0  0  0
  6 35  1  0  0  0  0
  6 36  1  0  0  0  0
  7  8  1  0  0  0  0
  7 37  1  0  0  0  0
  7 38  1  0  0  0  0
  8  9  1  0  0  0  0
  8 39  1  0  0  0  0
  8 40  1  0  0  0  0
  9 10  1  0  0  0  0
  9 41  1  0  0  0  0
  9 42  1  0  0  0  0
 10 11  1  0  0  0  0
 10 43  1  0  0  0  0
 10 44  1  0  0  0  0
 11 12  1  0  0  0  0
 11 45  1  0  0  0  0
 11 46  1  0  0  0  0
 12 13  1  0  0  0  0
 12 28  1  0  0  0  0
 13 14  2  0  0  0  0
 13 15  1  0  0  0  0
 15 16  1  0  0  0  0
 15 47  1  0  0  0  0
 15 48  1  0  0  0  0
 16 17  1  0  0  0  0
 16 49  1  0  0  0  0
 16 50  1  0  0  0  0
 17 18  1  0  0  0  0
 17 51  1  0  0  0  0
 17 52  1  0  0  0  0
 18 19  1  0  0  0  0
 18 53  1  0  0  0  0
 18 54  1  0  0  0  0
 19 20  1  0  0  0  0
 19 55  1  0  0  0  0
 19 56  1  0  0  0  0
 20 21  1  0  0  0  0
 20 57  1  0  0  0  0
 20 58  1  0  0  0  0
 21 22  1  0  0  0  0
 21 59  1  0  0  0  0
 21 60  1  0  0  0  0
 22 23  1  0  0  0  0
 22 61  1  0  0  0  0
 22 62  1  0  0  0  0
 23 24  1  0  0  0  0
 23 63  1  0  0  0  0
 23 64  1  0  0  0  0
 24 25  1  0  0  0  0
 24 65  1  0  0  0  0
 24 66  1  0  0  0  0
 25 26  1  0  0  0  0
 25 67  1  0  0  0  0
 25 68  1  0  0  0  0
 26 27  1  0  0  0  0
 26 69  1  0  0  0  0
 26 70  1  0  0  0  0
 27 71  1  0  0  0  0
 27 72  1  0  0  0  0
 27 73  1  0  0  0  0
 28 74  1  0  0  0  0
 28 75  1  0  0  0  0
M  END
$$$$
