
 OpenBabel04232216393D

 26 26  0  0  0  0  0  0  0  0999 V2000
    1.0695   -0.2801    0.3091 C   0  0  0  0  0  0  0  0  0  0  0  0
    2.3853   -0.0837    0.1156 C   0  0  0  0  0  0  0  0  0  0  0  0
    3.0930   -0.9249   -0.8283 C   0  0  0  0  0  3  0  0  0  0  0  0
    4.1592   -0.3921   -1.7426 C   0  0  0  0  0  0  0  0  0  0  0  0
    3.5887    0.5296   -2.8298 C   0  0  0  0  0  0  0  0  0  0  0  0
    4.1671    1.9491   -2.8064 C   0  0  0  0  0  0  0  0  0  0  0  0
    4.0012    2.7068   -1.5258 C   0  0  0  0  0  3  0  0  0  0  0  0
    2.6726    2.8434   -0.8530 C   0  0  0  0  0  0  0  0  0  0  0  0
    2.7040    2.4237    0.6186 C   0  0  0  0  0  0  0  0  0  0  0  0
    3.1450    0.9755    0.8833 C   0  0  0  0  0  0  0  0  0  0  0  0
    0.5129   -1.0319   -0.2397 H   0  0  0  0  0  0  0  0  0  0  0  0
    0.5052    0.3314    1.0075 H   0  0  0  0  0  0  0  0  0  0  0  0
    2.6166   -1.8524   -1.1384 H   0  0  0  0  0  0  0  0  0  0  0  0
    4.6218   -1.2585   -2.2348 H   0  0  0  0  0  0  0  0  0  0  0  0
    4.9693    0.0801   -1.1786 H   0  0  0  0  0  0  0  0  0  0  0  0
    2.4935    0.5730   -2.7878 H   0  0  0  0  0  0  0  0  0  0  0  0
    3.8247    0.0942   -3.8097 H   0  0  0  0  0  0  0  0  0  0  0  0
    3.7150    2.5321   -3.6174 H   0  0  0  0  0  0  0  0  0  0  0  0
    5.2396    1.8913   -3.0285 H   0  0  0  0  0  0  0  0  0  0  0  0
    4.8054    3.3649   -1.2098 H   0  0  0  0  0  0  0  0  0  0  0  0
    1.8977    2.2859   -1.3884 H   0  0  0  0  0  0  0  0  0  0  0  0
    2.3721    3.8967   -0.9077 H   0  0  0  0  0  0  0  0  0  0  0  0
    1.7054    2.5813    1.0449 H   0  0  0  0  0  0  0  0  0  0  0  0
    3.3760    3.0925    1.1727 H   0  0  0  0  0  0  0  0  0  0  0  0
    3.0236    0.7732    1.9571 H   0  0  0  0  0  0  0  0  0  0  0  0
    4.2242    0.8908    0.7130 H   0  0  0  0  0  0  0  0  0  0  0  0
  1  2  2  0  0  0  0
  1 11  1  0  0  0  0
  1 12  1  0  0  0  0
  2  3  1  0  0  0  0
  2 10  1  0  0  0  0
  3  4  1  0  0  0  0
  3 13  1  0  0  0  0
  4  5  1  0  0  0  0
  4 14  1  0  0  0  0
  4 15  1  0  0  0  0
  5  6  1  0  0  0  0
  5 16  1  0  0  0  0
  5 17  1  0  0  0  0
  6  7  1  0  0  0  0
  6 18  1  0  0  0  0
  6 19  1  0  0  0  0
  7  8  1  0  0  0  0
  7 20  1  0  0  0  0
  8  9  1  0  0  0  0
  8 21  1  0  0  0  0
  8 22  1  0  0  0  0
  9 10  1  0  0  0  0
  9 23  1  0  0  0  0
  9 24  1  0  0  0  0
 10 25  1  0  0  0  0
 10 26  1  0  0  0  0
M  END
$$$$
