
 OpenBabel04232217023D

 89 88  0  0  0  0  0  0  0  0999 V2000
   12.8756    1.9345  -12.3600 O   0  0  0  0  0  0  0  0  0  0  0  0
   12.4685    0.7679  -11.2368 S   0  0  0  0  0  0  0  0  0  0  0  0
   10.6550    0.8627  -11.3508 C   0  0  0  0  0  0  0  0  0  0  0  0
    9.8519   -0.3488  -10.2228 S   0  0  0  0  0  0  0  0  0  0  0  0
   10.3804    0.3049   -8.6112 C   0  0  0  0  0  0  0  0  0  0  0  0
    9.8407    1.6434   -8.4253 N   0  0  0  0  0  0  0  0  0  0  0  0
   10.2521    2.1782   -7.1190 N   0  0  0  0  0  0  0  0  0  0  0  0
    9.7097    3.7447   -7.0619 S   0  0  0  0  0  0  0  0  0  0  0  0
   10.4002    4.3118   -5.2032 S   0  0  0  0  0  0  0  0  0  0  0  0
   12.4596    4.3147   -5.2982 S   0  0  0  0  0  0  0  0  0  0  0  0
   13.0756    5.8241   -6.5717 S   0  0  0  0  0  0  0  0  0  0  0  0
   15.1582    5.7123   -6.6040 S   0  0  0  0  0  0  0  0  0  0  0  0
   15.8441    6.9880   -8.1042 S   0  0  0  0  0  0  0  0  0  0  0  0
   17.9399    6.9778   -8.0572 S   0  0  0  0  0  0  0  0  0  0  0  0
   18.6274    8.2693   -9.5649 S   0  0  0  0  0  0  0  0  0  0  0  0
   20.7311    8.2569   -9.5514 S   0  0  0  0  0  0  0  0  0  0  0  0
   21.4177    9.5594  -11.0585 S   0  0  0  0  0  0  0  0  0  0  0  0
   23.5263    9.5506  -11.0489 S   0  0  0  0  0  0  0  0  0  0  0  0
   24.2158   10.8529  -12.5574 S   0  0  0  0  0  0  0  0  0  0  0  0
   26.3252   10.8444  -12.5476 S   0  0  0  0  0  0  0  0  0  0  0  0
   27.0161   12.1469  -14.0563 S   0  0  0  0  0  0  0  0  0  0  0  0
   29.1256   12.1384  -14.0464 S   0  0  0  0  0  0  0  0  0  0  0  0
   29.8164   13.4409  -15.5551 S   0  0  0  0  0  0  0  0  0  0  0  0
   31.9258   13.4322  -15.5452 S   0  0  0  0  0  0  0  0  0  0  0  0
   32.6165   14.7347  -17.0539 S   0  0  0  0  0  0  0  0  0  0  0  0
   34.7259   14.7261  -17.0439 S   0  0  0  0  0  0  0  0  0  0  0  0
   35.4165   16.0286  -18.5526 S   0  0  0  0  0  0  0  0  0  0  0  0
   37.5259   16.0199  -18.5426 S   0  0  0  0  0  0  0  0  0  0  0  0
   38.2165   17.3224  -20.0513 S   0  0  0  0  0  0  0  0  0  0  0  0
   40.3259   17.3137  -20.0413 S   0  0  0  0  0  0  0  0  0  0  0  0
   41.0165   18.6162  -21.5500 S   0  0  0  0  0  0  0  0  0  0  0  0
   43.1259   18.6075  -21.5400 S   0  0  0  0  0  0  0  0  0  0  0  0
   43.8165   19.9100  -23.0487 S   0  0  0  0  0  0  0  0  0  0  0  0
   45.9259   19.9014  -23.0386 S   0  0  0  0  0  0  0  0  0  0  0  0
   46.6165   21.2038  -24.5474 S   0  0  0  0  0  0  0  0  0  0  0  0
   48.7258   21.1952  -24.5373 S   0  0  0  0  0  0  0  0  0  0  0  0
   49.4165   22.4976  -26.0460 S   0  0  0  0  0  0  0  0  0  0  0  0
   51.5258   22.4890  -26.0360 S   0  0  0  0  0  0  0  0  0  0  0  0
   52.2165   23.7914  -27.5447 S   0  0  0  0  0  0  0  0  0  0  0  0
   54.3258   23.7828  -27.5347 S   0  0  0  0  0  0  0  0  0  0  0  0
   55.0165   25.0853  -29.0434 S   0  0  0  0  0  0  0  0  0  0  0  0
   57.1258   25.0766  -29.0334 S   0  0  0  0  0  0  0  0  0  0  0  0
   57.8164   26.3791  -30.5421 S   0  0  0  0  0  0  0  0  0  0  0  0
   59.9258   26.3704  -30.5321 S   0  0  0  0  0  0  0  0  0  0  0  0
   60.6164   27.6729  -32.0408 S   0  0  0  0  0  0  0  0  0  0  0  0
   62.7258   27.6642  -32.0308 S   0  0  0  0  0  0  0  0  0  0  0  0
   63.4164   28.9667  -33.5395 S   0  0  0  0  0  0  0  0  0  0  0  0
   65.5258   28.9580  -33.5295 S   0  0  0  0  0  0  0  0  0  0  0  0
   66.2164   30.2605  -35.0382 S   0  0  0  0  0  0  0  0  0  0  0  0
   68.3258   30.2518  -35.0281 S   0  0  0  0  0  0  0  0  0  0  0  0
   69.0164   31.5543  -36.5369 S   0  0  0  0  0  0  0  0  0  0  0  0
   71.1258   31.5457  -36.5268 S   0  0  0  0  0  0  0  0  0  0  0  0
   71.8164   32.8481  -38.0355 S   0  0  0  0  0  0  0  0  0  0  0  0
   73.9258   32.8395  -38.0255 S   0  0  0  0  0  0  0  0  0  0  0  0
   74.6164   34.1419  -39.5342 S   0  0  0  0  0  0  0  0  0  0  0  0
   76.7258   34.1333  -39.5242 S   0  0  0  0  0  0  0  0  0  0  0  0
   77.4164   35.4357  -41.0329 S   0  0  0  0  0  0  0  0  0  0  0  0
   79.5258   35.4271  -41.0229 S   0  0  0  0  0  0  0  0  0  0  0  0
   80.2164   36.7296  -42.5316 S   0  0  0  0  0  0  0  0  0  0  0  0
   82.3258   36.7209  -42.5216 S   0  0  0  0  0  0  0  0  0  0  0  0
   83.0164   38.0234  -44.0303 S   0  0  0  0  0  0  0  0  0  0  0  0
   85.1257   38.0147  -44.0203 S   0  0  0  0  0  0  0  0  0  0  0  0
   85.8163   39.3172  -45.5290 S   0  0  0  0  0  0  0  0  0  0  0  0
   87.9257   39.3085  -45.5189 S   0  0  0  0  0  0  0  0  0  0  0  0
   88.6162   40.6109  -47.0276 S   0  0  0  0  0  0  0  0  0  0  0  0
   90.7254   40.6022  -47.0175 S   0  0  0  0  0  0  0  0  0  0  0  0
   91.4158   41.9045  -48.5260 S   0  0  0  0  0  0  0  0  0  0  0  0
   93.5246   41.8956  -48.5157 S   0  0  0  0  0  0  0  0  0  0  0  0
   94.2142   43.1977  -50.0239 S   0  0  0  0  0  0  0  0  0  0  0  0
   96.3220   43.1882  -50.0130 S   0  0  0  0  0  0  0  0  0  0  0  0
   97.0096   44.4895  -51.5203 S   0  0  0  0  0  0  0  0  0  0  0  0
   99.1146   44.4786  -51.5075 S   0  0  0  0  0  0  0  0  0  0  0  0
   99.7973   45.7777  -53.0132 S   0  0  0  0  0  0  0  0  0  0  0  0
  101.8964   45.7642  -52.9964 S   0  0  0  0  0  0  0  0  0  0  0  0
  102.5693   47.0638  -54.4955 S   0  0  0  0  0  0  0  0  0  0  0  0
  104.6576   47.0295  -54.4820 S   0  0  0  0  0  0  0  0  0  0  0  0
  105.3197   48.3340  -55.9652 S   0  0  0  0  0  0  0  0  0  0  0  0
  107.3912   48.3544  -55.8646 S   0  0  0  0  0  0  0  0  0  0  0  0
  108.0629   49.4524  -57.4825 S   0  0  0  0  0  0  0  0  0  0  0  0
  110.1174   49.5253  -57.3029 S   0  0  0  0  0  0  0  0  0  0  0  0
  110.7741   47.6746  -57.9090 S   0  0  0  0  0  0  0  0  0  0  0  0
   13.8423    2.0508  -12.3680 H   0  0  0  0  0  0  0  0  0  0  0  0
   10.3687    0.6071  -12.3530 H   0  0  0  0  0  0  0  0  0  0  0  0
   10.2933    1.8764  -11.1501 H   0  0  0  0  0  0  0  0  0  0  0  0
   11.4662    0.2732   -8.5338 H   0  0  0  0  0  0  0  0  0  0  0  0
    9.9791   -0.3776   -7.8485 H   0  0  0  0  0  0  0  0  0  0  0  0
    8.8315    1.6222   -8.4757 H   0  0  0  0  0  0  0  0  0  0  0  0
   11.2531    2.1797   -7.0848 H   0  0  0  0  0  0  0  0  0  0  0  0
  112.1019   47.8350  -57.7880 H   0  0  0  0  0  0  0  0  0  0  0  0
  1  2  1  0  0  0  0
  1 82  1  0  0  0  0
  2  3  1  0  0  0  0
  3  4  1  0  0  0  0
  3 83  1  0  0  0  0
  3 84  1  0  0  0  0
  4  5  1  0  0  0  0
  5  6  1  0  0  0  0
  5 85  1  0  0  0  0
  5 86  1  0  0  0  0
  6  7  1  0  0  0  0
  6 87  1  0  0  0  0
  7  8  1  0  0  0  0
  7 88  1  0  0  0  0
  8  9  1  0  0  0  0
  9 10  1  0  0  0  0
 10 11  1  0  0  0  0
 11 12  1  0  0  0  0
 12 13  1  0  0  0  0
 13 14  1  0  0  0  0
 14 15  1  0  0  0  0
 15 16  1  0  0  0  0
 16 17  1  0  0  0  0
 17 18  1  0  0  0  0
 18 19  1  0  0  0  0
 19 20  1  0  0  0  0
 20 21  1  0  0  0  0
 21 22  1  0  0  0  0
 22 23  1  0  0  0  0
 23 24  1  0  0  0  0
 24 25  1  0  0  0  0
 25 26  1  0  0  0  0
 26 27  1  0  0  0  0
 27 28  1  0  0  0  0
 28 29  1  0  0  0  0
 29 30  1  0  0  0  0
 30 31  1  0  0  0  0
 31 32  1  0  0  0  0
 32 33  1  0  0  0  0
 33 34  1  0  0  0  0
 34 35  1  0  0  0  0
 35 36  1  0  0  0  0
 36 37  1  0  0  0  0
 37 38  1  0  0  0  0
 38 39  1  0  0  0  0
 39 40  1  0  0  0  0
 40 41  1  0  0  0  0
 41 42  1  0  0  0  0
 42 43  1  0  0  0  0
 43 44  1  0  0  0  0
 44 45  1  0  0  0  0
 45 46  1  0  0  0  0
 46 47  1  0  0  0  0
 47 48  1  0  0  0  0
 48 49  1  0  0  0  0
 49 50  1  0  0  0  0
 50 51  1  0  0  0  0
 51 52  1  0  0  0  0
 52 53  1  0  0  0  0
 53 54  1  0  0  0  0
 54 55  1  0  0  0  0
 55 56  1  0  0  0  0
 56 57  1  0  0  0  0
 57 58  1  0  0  0  0
 58 59  1  0  0  0  0
 59 60  1  0  0  0  0
 60 61  1  0  0  0  0
 61 62  1  0  0  0  0
 62 63  1  0  0  0  0
 63 64  1  0  0  0  0
 64 65  1  0  0  0  0
 65 66  1  0  0  0  0
 66 67  1  0  0  0  0
 67 68  1  0  0  0  0
 68 69  1  0  0  0  0
 69 70  1  0  0  0  0
 70 71  1  0  0  0  0
 71 72  1  0  0  0  0
 72 73  1  0  0  0  0
 73 74  1  0  0  0  0
 74 75  1  0  0  0  0
 75 76  1  0  0  0  0
 76 77  1  0  0  0  0
 77 78  1  0  0  0  0
 78 79  1  0  0  0  0
 79 80  1  0  0  0  0
 80 81  1  0  0  0  0
 81 89  1  0  0  0  0
M  END
$$$$
