
 OpenBabel04232216463D

 59 59  0  0  0  0  0  0  0  0999 V2000
    3.2101   -1.3818    0.3312 C   0  0  0  0  0  0  0  0  0  0  0  0
    3.6139   -0.1150    1.0435 C   0  0  0  0  0  0  0  0  0  0  0  0
    4.3524    0.8823    0.2155 C   0  0  0  0  0  0  0  0  0  0  0  0
    3.7876    2.0629   -0.0910 C   0  0  0  0  0  0  0  0  0  0  0  0
    4.5547    3.1021   -0.8615 C   0  0  0  0  0  0  0  0  0  0  0  0
    5.2600    4.0665    0.0991 C   0  0  0  0  0  0  0  0  0  0  0  0
    6.0538    5.1201   -0.6633 C   0  0  0  0  0  0  0  0  0  0  0  0
    6.7494    6.0618    0.3142 C   0  0  0  0  0  0  0  0  0  0  0  0
    7.5436    7.1263   -0.4283 C   0  0  0  0  0  0  0  0  0  0  0  0
    8.2331    8.0598    0.5592 C   0  0  0  0  0  0  0  0  0  0  0  0
    9.0273    9.1264   -0.1820 C   0  0  0  0  0  0  0  0  0  0  0  0
    9.7167   10.0618    0.8030 C   0  0  0  0  0  0  0  0  0  0  0  0
   10.5105   11.1283    0.0584 C   0  0  0  0  0  0  0  0  0  0  0  0
   11.2012   12.0687    1.0397 C   0  0  0  0  0  0  0  0  0  0  0  0
   11.9964   13.1403    0.3006 C   0  0  0  0  0  0  0  0  0  0  0  0
   12.6842   14.0740    1.2785 C   0  0  0  0  0  0  0  0  0  0  0  0
    2.4438    2.4442    0.3351 C   0  0  0  0  0  0  0  0  0  0  0  0
    2.0863    2.5820    1.6240 C   0  0  0  0  0  0  0  0  0  0  0  0
    3.0046    2.3536    2.7233 C   0  0  0  0  0  0  0  0  0  0  0  0
    3.6115    1.1689    2.9576 C   0  0  0  0  0  0  0  0  0  0  0  0
    4.5783    1.1270    4.1017 C   0  0  0  0  0  0  0  0  0  0  0  0
    4.8485    2.0729    4.8320 O   0  0  0  0  0  0  0  0  0  0  0  0
    5.0450   -0.1447    4.2272 O   0  0  0  0  0  0  0  0  0  0  0  0
    4.9740   -0.4300    5.6440 O   0  0  0  0  0  0  0  0  0  0  0  0
    6.2553   -0.8437    6.1612 O   0  0  0  0  0  0  0  0  0  0  0  0
    3.2835   -0.0057    2.2885 N   0  0  0  0  0  0  0  0  0  0  0  0
    3.5661   -1.3861   -0.7018 H   0  0  0  0  0  0  0  0  0  0  0  0
    2.1143   -1.4410    0.3220 H   0  0  0  0  0  0  0  0  0  0  0  0
    3.6113   -2.2497    0.8561 H   0  0  0  0  0  0  0  0  0  0  0  0
    5.3531    0.6081   -0.0872 H   0  0  0  0  0  0  0  0  0  0  0  0
    3.8865    3.6549   -1.5329 H   0  0  0  0  0  0  0  0  0  0  0  0
    5.3054    2.6221   -1.5014 H   0  0  0  0  0  0  0  0  0  0  0  0
    5.9361    3.5059    0.7587 H   0  0  0  0  0  0  0  0  0  0  0  0
    4.5262    4.5645    0.7464 H   0  0  0  0  0  0  0  0  0  0  0  0
    5.3817    5.6910   -1.3155 H   0  0  0  0  0  0  0  0  0  0  0  0
    6.7974    4.6343   -1.3052 H   0  0  0  0  0  0  0  0  0  0  0  0
    7.4192    5.4871    0.9656 H   0  0  0  0  0  0  0  0  0  0  0  0
    6.0024    6.5394    0.9591 H   0  0  0  0  0  0  0  0  0  0  0  0
    6.8747    7.7027   -1.0773 H   0  0  0  0  0  0  0  0  0  0  0  0
    8.2912    6.6505   -1.0734 H   0  0  0  0  0  0  0  0  0  0  0  0
    8.9023    7.4830    1.2092 H   0  0  0  0  0  0  0  0  0  0  0  0
    7.4845    8.5356    1.2043 H   0  0  0  0  0  0  0  0  0  0  0  0
    8.3580    9.7020   -0.8332 H   0  0  0  0  0  0  0  0  0  0  0  0
    9.7754    8.6490   -0.8263 H   0  0  0  0  0  0  0  0  0  0  0  0
   10.3861    9.4863    1.4538 H   0  0  0  0  0  0  0  0  0  0  0  0
    8.9681   10.5378    1.4479 H   0  0  0  0  0  0  0  0  0  0  0  0
    9.8390   11.6999   -0.5937 H   0  0  0  0  0  0  0  0  0  0  0  0
   11.2579   10.6495   -0.5856 H   0  0  0  0  0  0  0  0  0  0  0  0
   11.8708   11.4934    1.6908 H   0  0  0  0  0  0  0  0  0  0  0  0
   10.4511   12.5429    1.6845 H   0  0  0  0  0  0  0  0  0  0  0  0
   11.3279   13.7187   -0.3493 H   0  0  0  0  0  0  0  0  0  0  0  0
   12.7478   12.6683   -0.3451 H   0  0  0  0  0  0  0  0  0  0  0  0
   11.9540   14.5837    1.9164 H   0  0  0  0  0  0  0  0  0  0  0  0
   13.2525   14.8399    0.7351 H   0  0  0  0  0  0  0  0  0  0  0  0
   13.3828   13.5266    1.9207 H   0  0  0  0  0  0  0  0  0  0  0  0
    1.7254    2.6525   -0.4483 H   0  0  0  0  0  0  0  0  0  0  0  0
    1.0826    2.9006    1.8854 H   0  0  0  0  0  0  0  0  0  0  0  0
    3.2208    3.2216    3.3408 H   0  0  0  0  0  0  0  0  0  0  0  0
    5.8886   -1.2997    6.9377 H   0  0  0  0  0  0  0  0  0  0  0  0
  1  2  1  0  0  0  0
  1 27  1  0  0  0  0
  1 28  1  0  0  0  0
  1 29  1  0  0  0  0
  2  3  1  0  0  0  0
  2 26  2  0  0  0  0
  3  4  2  0  0  0  0
  3 30  1  0  0  0  0
  4  5  1  0  0  0  0
  4 17  1  0  0  0  0
  5  6  1  0  0  0  0
  5 31  1  0  0  0  0
  5 32  1  0  0  0  0
  6  7  1  0  0  0  0
  6 33  1  0  0  0  0
  6 34  1  0  0  0  0
  7  8  1  0  0  0  0
  7 35  1  0  0  0  0
  7 36  1  0  0  0  0
  8  9  1  0  0  0  0
  8 37  1  0  0  0  0
  8 38  1  0  0  0  0
  9 10  1  0  0  0  0
  9 39  1  0  0  0  0
  9 40  1  0  0  0  0
 10 11  1  0  0  0  0
 10 41  1  0  0  0  0
 10 42  1  0  0  0  0
 11 12  1  0  0  0  0
 11 43  1  0  0  0  0
 11 44  1  0  0  0  0
 12 13  1  0  0  0  0
 12 45  1  0  0  0  0
 12 46  1  0  0  0  0
 13 14  1  0  0  0  0
 13 47  1  0  0  0  0
 13 48  1  0  0  0  0
 14 15  1  0  0  0  0
 14 49  1  0  0  0  0
 14 50  1  0  0  0  0
 15 16  1  0  0  0  0
 15 51  1  0  0  0  0
 15 52  1  0  0  0  0
 16 53  1  0  0  0  0
 16 54  1  0  0  0  0
 16 55  1  0  0  0  0
 17 18  2  0  0  0  0
 17 56  1  0  0  0  0
 18 19  1  0  0  0  0
 18 57  1  0  0  0  0
 19 20  2  0  0  0  0
 19 58  1  0  0  0  0
 20 21  1  0  0  0  0
 20 26  1  0  0  0  0
 21 22  2  0  0  0  0
 21 23  1  0  0  0  0
 23 24  1  0  0  0  0
 24 25  1  0  0  0  0
 25 59  1  0  0  0  0
M  END
$$$$
