
 OpenBabel04232216583D

119118  0  0  0  0  0  0  0  0999 V2000
    8.7302   -5.3520   -1.6779 N   0  0  0  0  0  0  0  0  0  0  0  0
    8.2919   -4.0337   -1.2428 C   0  0  0  0  0  0  0  0  0  0  0  0
    8.8098   -3.6559    0.1800 C   0  0  0  0  0  0  0  0  0  0  0  0
    8.3059   -2.2639    0.6311 C   0  0  0  0  0  0  0  0  0  0  0  0
    8.8169   -1.9209    1.9737 N   0  0  0  0  0  0  0  0  0  0  0  0
    8.3212   -0.5972    2.3428 N   0  0  0  0  0  0  0  0  0  0  0  0
    8.5794   -0.3169    3.7432 N   0  0  0  0  0  0  0  0  0  0  0  0
    8.2132    1.0323    4.1224 N   0  0  0  0  0  0  0  0  0  0  0  0
    8.6912    1.3466    5.4661 N   0  0  0  0  0  0  0  0  0  0  0  0
   10.1428    1.3985    5.5081 N   0  0  0  0  0  0  0  0  0  0  0  0
   10.6833    1.7975    6.7796 N   0  0  0  0  0  0  0  0  0  0  0  0
   12.1209    1.7750    6.7446 N   0  0  0  0  0  0  0  0  0  0  0  0
   12.6206    1.8794    8.0668 N   0  0  0  0  0  0  0  0  0  0  0  0
   14.0531    1.8839    8.0490 N   0  0  0  0  0  0  0  0  0  0  0  0
   14.5793    2.3049    9.3247 N   0  0  0  0  0  0  0  0  0  0  0  0
   15.9916    2.2745    9.3649 N   0  0  0  0  0  0  0  0  0  0  0  0
   16.4117    2.4160   10.7074 N   0  0  0  0  0  0  0  0  0  0  0  0
   17.7929    2.5133   10.6888 N   0  0  0  0  0  0  0  0  0  0  0  0
   18.2534    2.8604   11.9746 N   0  0  0  0  0  0  0  0  0  0  0  0
   19.6553    2.7400   12.0111 N   0  0  0  0  0  0  0  0  0  0  0  0
   20.1726    3.1709   13.2649 N   0  0  0  0  0  0  0  0  0  0  0  0
   21.5886    3.1871   13.2416 N   0  0  0  0  0  0  0  0  0  0  0  0
   22.0541    3.3266   14.5460 N   0  0  0  0  0  0  0  0  0  0  0  0
   23.4477    3.4882   14.4861 N   0  0  0  0  0  0  0  0  0  0  0  0
   23.9083    3.7588   15.7903 N   0  0  0  0  0  0  0  0  0  0  0  0
   25.3261    3.6887   15.8489 N   0  0  0  0  0  0  0  0  0  0  0  0
   25.8015    4.0326   17.1623 N   0  0  0  0  0  0  0  0  0  0  0  0
   27.2369    4.0333   17.1856 N   0  0  0  0  0  0  0  0  0  0  0  0
   27.7694    4.3388   18.4953 N   0  0  0  0  0  0  0  0  0  0  0  0
   29.2094    4.2947   18.4694 N   0  0  0  0  0  0  0  0  0  0  0  0
   29.7525    4.6521   19.7437 N   0  0  0  0  0  0  0  0  0  0  0  0
   31.1852    4.6524   19.7704 N   0  0  0  0  0  0  0  0  0  0  0  0
   31.7617    5.6544   18.9492 N   0  0  0  0  0  0  0  0  0  0  0  0
   33.3811    5.7945   19.2622 S   0  0  0  0  0  0  0  0  0  0  0  0
   33.7964    7.3495   17.9867 S   0  0  0  0  0  0  0  0  0  0  0  0
   32.8875    8.9955   18.8231 S   0  0  0  0  0  0  0  0  0  0  0  0
   34.1155    9.6680   20.3347 S   0  0  0  0  0  0  0  0  0  0  0  0
   33.2167   11.3974   21.0265 S   0  0  0  0  0  0  0  0  0  0  0  0
   33.7262   11.6201   23.0225 S   0  0  0  0  0  0  0  0  0  0  0  0
   33.1382   13.5453   23.5547 S   0  0  0  0  0  0  0  0  0  0  0  0
   33.8170   13.9001   25.4905 S   0  0  0  0  0  0  0  0  0  0  0  0
   33.0097   15.7231   26.1161 S   0  0  0  0  0  0  0  0  0  0  0  0
   33.7411   16.1138   28.0372 S   0  0  0  0  0  0  0  0  0  0  0  0
   32.9705   17.9589   28.6648 S   0  0  0  0  0  0  0  0  0  0  0  0
   33.6783   18.3344   30.6051 S   0  0  0  0  0  0  0  0  0  0  0  0
   32.9150   20.1863   31.2398 S   0  0  0  0  0  0  0  0  0  0  0  0
   33.6256   20.5673   33.1826 S   0  0  0  0  0  0  0  0  0  0  0  0
   32.8601   22.4211   33.8220 S   0  0  0  0  0  0  0  0  0  0  0  0
   33.5704   22.8056   35.7672 S   0  0  0  0  0  0  0  0  0  0  0  0
   32.8051   24.6612   36.4085 S   0  0  0  0  0  0  0  0  0  0  0  0
   33.5150   25.0473   38.3553 S   0  0  0  0  0  0  0  0  0  0  0  0
   32.7497   26.9038   38.9978 S   0  0  0  0  0  0  0  0  0  0  0  0
   33.4596   27.2907   40.9454 S   0  0  0  0  0  0  0  0  0  0  0  0
   32.6944   29.1477   41.5886 S   0  0  0  0  0  0  0  0  0  0  0  0
   33.4043   29.5348   43.5366 S   0  0  0  0  0  0  0  0  0  0  0  0
   32.6390   31.3921   44.1800 S   0  0  0  0  0  0  0  0  0  0  0  0
   33.3489   31.7794   46.1281 S   0  0  0  0  0  0  0  0  0  0  0  0
   32.5837   33.6366   46.7715 S   0  0  0  0  0  0  0  0  0  0  0  0
   33.2935   34.0239   48.7196 S   0  0  0  0  0  0  0  0  0  0  0  0
   32.5283   35.8811   49.3630 S   0  0  0  0  0  0  0  0  0  0  0  0
   33.2382   36.2683   51.3110 S   0  0  0  0  0  0  0  0  0  0  0  0
   32.4729   38.1253   51.9541 S   0  0  0  0  0  0  0  0  0  0  0  0
   33.1828   38.5120   53.9016 S   0  0  0  0  0  0  0  0  0  0  0  0
   32.4176   40.3685   54.5441 S   0  0  0  0  0  0  0  0  0  0  0  0
   33.1275   40.7545   56.4908 S   0  0  0  0  0  0  0  0  0  0  0  0
   32.3622   42.6100   57.1319 S   0  0  0  0  0  0  0  0  0  0  0  0
   33.0724   42.9944   59.0770 S   0  0  0  0  0  0  0  0  0  0  0  0
   32.3067   44.8481   59.7158 S   0  0  0  0  0  0  0  0  0  0  0  0
   33.0171   45.2294   61.6582 S   0  0  0  0  0  0  0  0  0  0  0  0
   32.2531   47.0810   62.2925 S   0  0  0  0  0  0  0  0  0  0  0  0
   32.9617   47.4554   64.2320 S   0  0  0  0  0  0  0  0  0  0  0  0
   32.1946   49.3008   64.8620 S   0  0  0  0  0  0  0  0  0  0  0  0
   32.9249   49.6807   66.7855 S   0  0  0  0  0  0  0  0  0  0  0  0
   32.1280   51.5039   67.4184 S   0  0  0  0  0  0  0  0  0  0  0  0
   32.8246   51.8585   69.3499 S   0  0  0  0  0  0  0  0  0  0  0  0
   32.1890   53.7624   69.8913 S   0  0  0  0  0  0  0  0  0  0  0  0
   32.7343   54.0429   71.8728 S   0  0  0  0  0  0  0  0  0  0  0  0
   31.8862   55.8345   72.4632 S   0  0  0  0  0  0  0  0  0  0  0  0
   32.8942   56.4252   74.1631 S   0  0  0  0  0  0  0  0  0  0  0  0
   31.8901   58.0825   74.8632 S   0  0  0  0  0  0  0  0  0  0  0  0
   32.7437   59.6783   73.8919 S   0  0  0  0  0  0  0  0  0  0  0  0
    8.2408   -5.5927   -2.5420 H   0  0  0  0  0  0  0  0  0  0  0  0
    8.4558   -6.0477   -0.9804 H   0  0  0  0  0  0  0  0  0  0  0  0
    7.2075   -3.9913   -1.2443 H   0  0  0  0  0  0  0  0  0  0  0  0
    8.6583   -3.2862   -1.9553 H   0  0  0  0  0  0  0  0  0  0  0  0
    9.9026   -3.6661    0.1857 H   0  0  0  0  0  0  0  0  0  0  0  0
    8.4693   -4.4071    0.8997 H   0  0  0  0  0  0  0  0  0  0  0  0
    7.2085   -2.2643    0.6409 H   0  0  0  0  0  0  0  0  0  0  0  0
    8.6382   -1.5070   -0.0909 H   0  0  0  0  0  0  0  0  0  0  0  0
    9.8409   -1.9468    1.9064 H   0  0  0  0  0  0  0  0  0  0  0  0
    7.3052   -0.5916    2.1623 H   0  0  0  0  0  0  0  0  0  0  0  0
    9.5867   -0.3836    3.9416 H   0  0  0  0  0  0  0  0  0  0  0  0
    7.1883    1.1430    4.1416 H   0  0  0  0  0  0  0  0  0  0  0  0
    8.2909    0.6572    6.1097 H   0  0  0  0  0  0  0  0  0  0  0  0
   10.4448    2.0717    4.7936 H   0  0  0  0  0  0  0  0  0  0  0  0
   10.4503    1.1456    7.5335 H   0  0  0  0  0  0  0  0  0  0  0  0
   12.4875    2.5475    6.1885 H   0  0  0  0  0  0  0  0  0  0  0  0
   12.2537    1.1041    8.6250 H   0  0  0  0  0  0  0  0  0  0  0  0
   14.3529    2.5303    7.3072 H   0  0  0  0  0  0  0  0  0  0  0  0
   14.2723    1.6717   10.0655 H   0  0  0  0  0  0  0  0  0  0  0  0
   16.4274    3.0470    8.8641 H   0  0  0  0  0  0  0  0  0  0  0  0
   16.0501    1.6166   11.2310 H   0  0  0  0  0  0  0  0  0  0  0  0
   18.0706    3.2200   10.0029 H   0  0  0  0  0  0  0  0  0  0  0  0
   17.8149    2.2240   12.6496 H   0  0  0  0  0  0  0  0  0  0  0  0
   20.0783    3.3251   11.2873 H   0  0  0  0  0  0  0  0  0  0  0  0
   19.9340    2.5273   14.0223 H   0  0  0  0  0  0  0  0  0  0  0  0
   21.9579    3.9758   12.7128 H   0  0  0  0  0  0  0  0  0  0  0  0
   21.8381    2.5254   15.1313 H   0  0  0  0  0  0  0  0  0  0  0  0
   23.6237    4.2355   13.8121 H   0  0  0  0  0  0  0  0  0  0  0  0
   23.4424    3.0631   16.3871 H   0  0  0  0  0  0  0  0  0  0  0  0
   25.6994    4.3409   15.1516 H   0  0  0  0  0  0  0  0  0  0  0  0
   25.4138    3.3437   17.8158 H   0  0  0  0  0  0  0  0  0  0  0  0
   27.5650    4.7320   16.5091 H   0  0  0  0  0  0  0  0  0  0  0  0
   27.4260    3.6630   19.1889 H   0  0  0  0  0  0  0  0  0  0  0  0
   29.5458    4.9761   17.7784 H   0  0  0  0  0  0  0  0  0  0  0  0
   29.4588    4.0026   20.4793 H   0  0  0  0  0  0  0  0  0  0  0  0
   31.5951    3.7349   19.5887 H   0  0  0  0  0  0  0  0  0  0  0  0
   31.3023    6.5346   19.1768 H   0  0  0  0  0  0  0  0  0  0  0  0
   32.1194   60.6934   74.5111 H   0  0  0  0  0  0  0  0  0  0  0  0
  1  2  1  0  0  0  0
  1 82  1  0  0  0  0
  1 83  1  0  0  0  0
  2  3  1  0  0  0  0
  2 84  1  0  0  0  0
  2 85  1  0  0  0  0
  3  4  1  0  0  0  0
  3 86  1  0  0  0  0
  3 87  1  0  0  0  0
  4  5  1  0  0  0  0
  4 88  1  0  0  0  0
  4 89  1  0  0  0  0
  5  6  1  0  0  0  0
  5 90  1  0  0  0  0
  6  7  1  0  0  0  0
  6 91  1  0  0  0  0
  7  8  1  0  0  0  0
  7 92  1  0  0  0  0
  8  9  1  0  0  0  0
  8 93  1  0  0  0  0
  9 10  1  0  0  0  0
  9 94  1  0  0  0  0
 10 11  1  0  0  0  0
 10 95  1  0  0  0  0
 11 12  1  0  0  0  0
 11 96  1  0  0  0  0
 12 13  1  0  0  0  0
 12 97  1  0  0  0  0
 13 14  1  0  0  0  0
 13 98  1  0  0  0  0
 14 15  1  0  0  0  0
 14 99  1  0  0  0  0
 15 16  1  0  0  0  0
 15100  1  0  0  0  0
 16 17  1  0  0  0  0
 16101  1  0  0  0  0
 17 18  1  0  0  0  0
 17102  1  0  0  0  0
 18 19  1  0  0  0  0
 18103  1  0  0  0  0
 19 20  1  0  0  0  0
 19104  1  0  0  0  0
 20 21  1  0  0  0  0
 20105  1  0  0  0  0
 21 22  1  0  0  0  0
 21106  1  0  0  0  0
 22 23  1  0  0  0  0
 22107  1  0  0  0  0
 23 24  1  0  0  0  0
 23108  1  0  0  0  0
 24 25  1  0  0  0  0
 24109  1  0  0  0  0
 25 26  1  0  0  0  0
 25110  1  0  0  0  0
 26 27  1  0  0  0  0
 26111  1  0  0  0  0
 27 28  1  0  0  0  0
 27112  1  0  0  0  0
 28 29  1  0  0  0  0
 28113  1  0  0  0  0
 29 30  1  0  0  0  0
 29114  1  0  0  0  0
 30 31  1  0  0  0  0
 30115  1  0  0  0  0
 31 32  1  0  0  0  0
 31116  1  0  0  0  0
 32 33  1  0  0  0  0
 32117  1  0  0  0  0
 33 34  1  0  0  0  0
 33118  1  0  0  0  0
 34 35  1  0  0  0  0
 35 36  1  0  0  0  0
 36 37  1  0  0  0  0
 37 38  1  0  0  0  0
 38 39  1  0  0  0  0
 39 40  1  0  0  0  0
 40 41  1  0  0  0  0
 41 42  1  0  0  0  0
 42 43  1  0  0  0  0
 43 44  1  0  0  0  0
 44 45  1  0  0  0  0
 45 46  1  0  0  0  0
 46 47  1  0  0  0  0
 47 48  1  0  0  0  0
 48 49  1  0  0  0  0
 49 50  1  0  0  0  0
 50 51  1  0  0  0  0
 51 52  1  0  0  0  0
 52 53  1  0  0  0  0
 53 54  1  0  0  0  0
 54 55  1  0  0  0  0
 55 56  1  0  0  0  0
 56 57  1  0  0  0  0
 57 58  1  0  0  0  0
 58 59  1  0  0  0  0
 59 60  1  0  0  0  0
 60 61  1  0  0  0  0
 61 62  1  0  0  0  0
 62 63  1  0  0  0  0
 63 64  1  0  0  0  0
 64 65  1  0  0  0  0
 65 66  1  0  0  0  0
 66 67  1  0  0  0  0
 67 68  1  0  0  0  0
 68 69  1  0  0  0  0
 69 70  1  0  0  0  0
 70 71  1  0  0  0  0
 71 72  1  0  0  0  0
 72 73  1  0  0  0  0
 73 74  1  0  0  0  0
 74 75  1  0  0  0  0
 75 76  1  0  0  0  0
 76 77  1  0  0  0  0
 77 78  1  0  0  0  0
 78 79  1  0  0  0  0
 79 80  1  0  0  0  0
 80 81  1  0  0  0  0
 81119  1  0  0  0  0
M  END
$$$$
