
 OpenBabel04232217003D

208207  0  0  0  0  0  0  0  0999 V2000
    2.8143   -4.2160    6.8594 O   0  0  0  0  0  0  0  0  0  0  0  0
    3.3533   -3.2269    6.3097 C   0  0  0  0  0  0  0  0  0  0  0  0
    3.7120   -3.2174    4.8787 C   0  0  0  0  0  0  0  0  0  0  0  0
    5.1917   -2.9786    4.7176 C   0  0  0  0  0  0  0  0  0  0  0  0
    5.5328   -2.9660    3.2536 C   0  0  0  0  0  0  0  0  0  0  0  0
    6.9120   -2.7281    3.2004 O   0  0  0  0  0  0  0  0  0  0  0  0
    7.1925   -2.7178    1.7942 O   0  0  0  0  0  0  0  0  0  0  0  0
    8.5840   -2.4900    1.6199 O   0  0  0  0  0  0  0  0  0  0  0  0
    9.2990   -3.5268    2.2933 O   0  0  0  0  0  0  0  0  0  0  0  0
   10.6781   -3.2788    2.1538 O   0  0  0  0  0  0  0  0  0  0  0  0
   11.2763   -4.3423    2.8269 C   0  0  0  0  0  0  0  0  0  0  0  0
   12.7336   -4.0969    2.6755 C   0  0  0  0  0  0  0  0  0  0  0  0
   13.4563   -5.1908    3.3667 C   0  0  0  0  0  0  0  0  0  0  0  0
   14.7902   -4.8698    3.1698 O   0  0  0  0  0  0  0  0  0  0  0  0
   15.4444   -5.9205    3.8335 O   0  0  0  0  0  0  0  0  0  0  0  0
   16.8055   -5.6893    3.6908 O   0  0  0  0  0  0  0  0  0  0  0  0
   17.4615   -6.7196    4.3439 O   0  0  0  0  0  0  0  0  0  0  0  0
   18.8156   -6.4677    4.1860 O   0  0  0  0  0  0  0  0  0  0  0  0
   19.4756   -7.4901    4.8366 O   0  0  0  0  0  0  0  0  0  0  0  0
   20.8298   -7.2392    4.6769 O   0  0  0  0  0  0  0  0  0  0  0  0
   21.4862   -8.2700    5.3299 O   0  0  0  0  0  0  0  0  0  0  0  0
   22.8485   -8.0399    5.1861 O   0  0  0  0  0  0  0  0  0  0  0  0
   23.5053   -9.0884    5.8530 O   0  0  0  0  0  0  0  0  0  0  0  0
   24.8453   -8.7757    5.6540 C   0  0  0  0  0  0  0  0  0  0  0  0
   25.5745   -9.8739    6.3524 C   0  0  0  0  0  0  0  0  0  0  0  0
   27.0527   -9.6435    6.2083 C   0  0  0  0  0  0  0  0  0  0  0  0
   27.8073  -10.7483    6.9109 C   0  0  0  0  0  0  0  0  0  0  0  0
   29.2959  -10.5186    6.7672 C   0  0  0  0  0  0  0  0  0  0  0  0
   30.0576  -11.6231    7.4696 C   0  0  0  0  0  0  0  0  0  0  0  0
   31.5490  -11.3930    7.3257 C   0  0  0  0  0  0  0  0  0  0  0  0
   32.3120  -12.4983    8.0286 C   0  0  0  0  0  0  0  0  0  0  0  0
   33.8034  -12.2683    7.8847 C   0  0  0  0  0  0  0  0  0  0  0  0
   34.5664  -13.3747    8.5859 C   0  0  0  0  0  0  0  0  0  0  0  0
   36.0578  -13.1447    8.4421 C   0  0  0  0  0  0  0  0  0  0  0  0
   36.8208  -14.2511    9.1433 C   0  0  0  0  0  0  0  0  0  0  0  0
   38.3122  -14.0211    8.9994 C   0  0  0  0  0  0  0  0  0  0  0  0
   39.0752  -15.1264    9.7023 C   0  0  0  0  0  0  0  0  0  0  0  0
   40.5666  -14.8953    9.5602 C   0  0  0  0  0  0  0  0  0  0  0  0
   41.3296  -15.9995   10.2648 C   0  0  0  0  0  0  0  0  0  0  0  0
   42.8210  -15.7695   10.1209 C   0  0  0  0  0  0  0  0  0  0  0  0
   43.5840  -16.8748   10.8238 C   0  0  0  0  0  0  0  0  0  0  0  0
   45.0754  -16.6459   10.6783 C   0  0  0  0  0  0  0  0  0  0  0  0
   45.8384  -17.7512   11.3812 C   0  0  0  0  0  0  0  0  0  0  0  0
   47.3298  -17.5223   11.2356 C   0  0  0  0  0  0  0  0  0  0  0  0
   48.0928  -18.6276   11.9385 C   0  0  0  0  0  0  0  0  0  0  0  0
   49.5843  -18.3987   11.7930 C   0  0  0  0  0  0  0  0  0  0  0  0
   50.3473  -19.5040   12.4959 C   0  0  0  0  0  0  0  0  0  0  0  0
   51.8387  -19.2740   12.3520 C   0  0  0  0  0  0  0  0  0  0  0  0
   52.6017  -20.3804   13.0533 C   0  0  0  0  0  0  0  0  0  0  0  0
   54.0931  -20.1493   12.9111 C   0  0  0  0  0  0  0  0  0  0  0  0
   54.8561  -21.2557   13.6123 C   0  0  0  0  0  0  0  0  0  0  0  0
   56.3475  -21.0257   13.4684 C   0  0  0  0  0  0  0  0  0  0  0  0
   57.1105  -22.1332   14.1679 C   0  0  0  0  0  0  0  0  0  0  0  0
   58.6019  -21.9021   14.0258 C   0  0  0  0  0  0  0  0  0  0  0  0
   59.3649  -23.0085   14.7270 C   0  0  0  0  0  0  0  0  0  0  0  0
   60.8563  -22.7764   14.5865 C   0  0  0  0  0  0  0  0  0  0  0  0
   61.6193  -23.8838   15.2861 C   0  0  0  0  0  0  0  0  0  0  0  0
   63.1107  -23.6517   15.1456 C   0  0  0  0  0  0  0  0  0  0  0  0
   63.8737  -24.7580   15.8468 C   0  0  0  0  0  0  0  0  0  0  0  0
   65.3651  -24.5259   15.7063 C   0  0  0  0  0  0  0  0  0  0  0  0
   66.1281  -25.6323   16.4076 C   0  0  0  0  0  0  0  0  0  0  0  0
   67.6195  -25.4001   16.2671 C   0  0  0  0  0  0  0  0  0  0  0  0
   68.3825  -26.5065   16.9683 C   0  0  0  0  0  0  0  0  0  0  0  0
   69.8739  -26.2744   16.8279 C   0  0  0  0  0  0  0  0  0  0  0  0
   70.6369  -27.3807   17.5291 C   0  0  0  0  0  0  0  0  0  0  0  0
   72.1283  -27.1486   17.3886 C   0  0  0  0  0  0  0  0  0  0  0  0
   72.8913  -28.2550   18.0898 C   0  0  0  0  0  0  0  0  0  0  0  0
   74.3827  -28.0229   17.9494 C   0  0  0  0  0  0  0  0  0  0  0  0
   75.1457  -29.1282   18.6523 C   0  0  0  0  0  0  0  0  0  0  0  0
   76.6371  -28.8960   18.5118 C   0  0  0  0  0  0  0  0  0  0  0  0
   77.4000  -30.0013   19.2148 C   0  0  0  0  0  0  0  0  0  0  0  0
   78.8914  -29.7692   19.0743 C   0  0  0  0  0  0  0  0  0  0  0  0
   79.6544  -30.8745   19.7772 C   0  0  0  0  0  0  0  0  0  0  0  0
   81.1458  -30.6423   19.6368 C   0  0  0  0  0  0  0  0  0  0  0  0
   81.9088  -31.7487   20.3380 C   0  0  0  0  0  0  0  0  0  0  0  0
   83.4002  -31.5166   20.1975 C   0  0  0  0  0  0  0  0  0  0  0  0
   84.1627  -32.6233   20.8990 C   0  0  0  0  0  0  0  0  0  0  0  0
   85.6546  -32.3915   20.7611 C   0  0  0  0  0  0  0  0  0  0  0  0
   86.4228  -33.4967   21.4640 C   0  0  0  0  0  0  0  0  0  0  0  0
   87.9091  -33.2609   21.3235 C   0  0  0  0  0  0  0  0  0  0  0  0
    3.5423   -2.3172    6.8908 H   0  0  0  0  0  0  0  0  0  0  0  0
    3.1527   -2.4207    4.3733 H   0  0  0  0  0  0  0  0  0  0  0  0
    3.4473   -4.1782    4.4214 H   0  0  0  0  0  0  0  0  0  0  0  0
    5.7809   -3.7562    5.2178 H   0  0  0  0  0  0  0  0  0  0  0  0
    5.4962   -2.0266    5.1666 H   0  0  0  0  0  0  0  0  0  0  0  0
    5.0188   -2.1590    2.7196 H   0  0  0  0  0  0  0  0  0  0  0  0
    5.3121   -3.9252    2.7711 H   0  0  0  0  0  0  0  0  0  0  0  0
   10.9791   -5.2894    2.3644 H   0  0  0  0  0  0  0  0  0  0  0  0
   10.9751   -4.3314    3.8796 H   0  0  0  0  0  0  0  0  0  0  0  0
   13.0128   -3.1200    3.0939 H   0  0  0  0  0  0  0  0  0  0  0  0
   13.0163   -4.0524    1.6147 H   0  0  0  0  0  0  0  0  0  0  0  0
   13.2413   -6.1686    2.9218 H   0  0  0  0  0  0  0  0  0  0  0  0
   13.2356   -5.2133    4.4396 H   0  0  0  0  0  0  0  0  0  0  0  0
   25.0547   -7.7911    6.0909 H   0  0  0  0  0  0  0  0  0  0  0  0
   25.0548   -8.7538    4.5771 H   0  0  0  0  0  0  0  0  0  0  0  0
   25.2785  -10.8365    5.9231 H   0  0  0  0  0  0  0  0  0  0  0  0
   25.2764   -9.8952    7.4056 H   0  0  0  0  0  0  0  0  0  0  0  0
   27.3151   -8.6697    6.6414 H   0  0  0  0  0  0  0  0  0  0  0  0
   27.3173   -9.6210    5.1432 H   0  0  0  0  0  0  0  0  0  0  0  0
   27.5336  -11.7180    6.4771 H   0  0  0  0  0  0  0  0  0  0  0  0
   27.5314  -10.7685    7.9725 H   0  0  0  0  0  0  0  0  0  0  0  0
   29.5641   -9.5472    7.2000 H   0  0  0  0  0  0  0  0  0  0  0  0
   29.5663  -10.4967    5.7045 H   0  0  0  0  0  0  0  0  0  0  0  0
   29.7881  -12.5937    7.0362 H   0  0  0  0  0  0  0  0  0  0  0  0
   29.7860  -11.6441    8.5318 H   0  0  0  0  0  0  0  0  0  0  0  0
   31.8184  -10.4223    7.7590 H   0  0  0  0  0  0  0  0  0  0  0  0
   31.8206  -11.3720    6.2634 H   0  0  0  0  0  0  0  0  0  0  0  0
   32.0425  -13.4690    7.5953 H   0  0  0  0  0  0  0  0  0  0  0  0
   32.0404  -12.5194    9.0908 H   0  0  0  0  0  0  0  0  0  0  0  0
   34.0730  -11.2983    8.3193 H   0  0  0  0  0  0  0  0  0  0  0  0
   34.0748  -12.2458    6.8224 H   0  0  0  0  0  0  0  0  0  0  0  0
   34.2968  -14.3447    8.1513 H   0  0  0  0  0  0  0  0  0  0  0  0
   34.2950  -13.3972    9.6482 H   0  0  0  0  0  0  0  0  0  0  0  0
   36.3275  -12.1747    8.8767 H   0  0  0  0  0  0  0  0  0  0  0  0
   36.3292  -13.1222    7.3798 H   0  0  0  0  0  0  0  0  0  0  0  0
   36.5512  -15.2212    8.7087 H   0  0  0  0  0  0  0  0  0  0  0  0
   36.5494  -14.2736   10.2056 H   0  0  0  0  0  0  0  0  0  0  0  0
   38.5816  -13.0504    9.4327 H   0  0  0  0  0  0  0  0  0  0  0  0
   38.5838  -14.0000    7.9372 H   0  0  0  0  0  0  0  0  0  0  0  0
   38.8069  -16.0969    9.2681 H   0  0  0  0  0  0  0  0  0  0  0  0
   38.8026  -15.1484   10.7643 H   0  0  0  0  0  0  0  0  0  0  0  0
   40.8348  -13.9241    9.9932 H   0  0  0  0  0  0  0  0  0  0  0  0
   40.8395  -14.8747    8.4982 H   0  0  0  0  0  0  0  0  0  0  0  0
   41.0604  -16.9708    9.8327 H   0  0  0  0  0  0  0  0  0  0  0  0
   41.0578  -16.0192   11.3270 H   0  0  0  0  0  0  0  0  0  0  0  0
   43.0905  -14.7988   10.5542 H   0  0  0  0  0  0  0  0  0  0  0  0
   43.0926  -15.7485    9.0587 H   0  0  0  0  0  0  0  0  0  0  0  0
   43.3135  -17.8457   10.3915 H   0  0  0  0  0  0  0  0  0  0  0  0
   43.3135  -16.8950   11.8864 H   0  0  0  0  0  0  0  0  0  0  0  0
   45.3460  -15.6751   11.1106 H   0  0  0  0  0  0  0  0  0  0  0  0
   45.3460  -16.6258    9.6157 H   0  0  0  0  0  0  0  0  0  0  0  0
   45.5679  -18.7220   10.9489 H   0  0  0  0  0  0  0  0  0  0  0  0
   45.5679  -17.7714   12.4437 H   0  0  0  0  0  0  0  0  0  0  0  0
   47.6004  -16.5515   11.6680 H   0  0  0  0  0  0  0  0  0  0  0  0
   47.6004  -17.5022   10.1731 H   0  0  0  0  0  0  0  0  0  0  0  0
   47.8223  -19.5984   11.5062 H   0  0  0  0  0  0  0  0  0  0  0  0
   47.8223  -18.6477   13.0011 H   0  0  0  0  0  0  0  0  0  0  0  0
   49.8548  -17.4279   12.2253 H   0  0  0  0  0  0  0  0  0  0  0  0
   49.8548  -18.3786   10.7304 H   0  0  0  0  0  0  0  0  0  0  0  0
   50.0778  -20.4747   12.0626 H   0  0  0  0  0  0  0  0  0  0  0  0
   50.0757  -19.5251   13.5581 H   0  0  0  0  0  0  0  0  0  0  0  0
   52.1083  -18.3040   12.7866 H   0  0  0  0  0  0  0  0  0  0  0  0
   52.1101  -19.2515   11.2897 H   0  0  0  0  0  0  0  0  0  0  0  0
   52.3331  -21.3503   12.6177 H   0  0  0  0  0  0  0  0  0  0  0  0
   52.3292  -20.4038   14.1152 H   0  0  0  0  0  0  0  0  0  0  0  0
   54.3617  -19.1794   13.3466 H   0  0  0  0  0  0  0  0  0  0  0  0
   54.3655  -20.1259   11.8491 H   0  0  0  0  0  0  0  0  0  0  0  0
   54.5864  -22.2258   13.1777 H   0  0  0  0  0  0  0  0  0  0  0  0
   54.5847  -21.2782   14.6746 H   0  0  0  0  0  0  0  0  0  0  0  0
   56.6173  -20.0563   13.9043 H   0  0  0  0  0  0  0  0  0  0  0  0
   56.6187  -21.0018   12.4061 H   0  0  0  0  0  0  0  0  0  0  0  0
   56.8417  -23.1025   13.7311 H   0  0  0  0  0  0  0  0  0  0  0  0
   56.8382  -22.1580   15.2299 H   0  0  0  0  0  0  0  0  0  0  0  0
   58.8705  -20.9322   14.4614 H   0  0  0  0  0  0  0  0  0  0  0  0
   58.8743  -21.8786   12.9638 H   0  0  0  0  0  0  0  0  0  0  0  0
   59.0973  -23.9783   14.2904 H   0  0  0  0  0  0  0  0  0  0  0  0
   59.0914  -23.0329   15.7887 H   0  0  0  0  0  0  0  0  0  0  0  0
   61.1240  -21.8072   15.0243 H   0  0  0  0  0  0  0  0  0  0  0  0
   61.1296  -22.7505   13.5248 H   0  0  0  0  0  0  0  0  0  0  0  0
   61.3516  -24.8529   14.8482 H   0  0  0  0  0  0  0  0  0  0  0  0
   61.3459  -23.9096   16.3478 H   0  0  0  0  0  0  0  0  0  0  0  0
   63.3782  -22.6819   15.5821 H   0  0  0  0  0  0  0  0  0  0  0  0
   63.3842  -23.6273   14.0839 H   0  0  0  0  0  0  0  0  0  0  0  0
   63.6062  -25.7278   15.4103 H   0  0  0  0  0  0  0  0  0  0  0  0
   63.6001  -24.7824   16.9085 H   0  0  0  0  0  0  0  0  0  0  0  0
   65.6326  -23.5561   16.1429 H   0  0  0  0  0  0  0  0  0  0  0  0
   65.6386  -24.5015   14.6447 H   0  0  0  0  0  0  0  0  0  0  0  0
   65.8606  -26.6021   15.9710 H   0  0  0  0  0  0  0  0  0  0  0  0
   65.8545  -25.6566   17.4693 H   0  0  0  0  0  0  0  0  0  0  0  0
   67.8870  -24.4304   16.7036 H   0  0  0  0  0  0  0  0  0  0  0  0
   67.8930  -25.3758   15.2054 H   0  0  0  0  0  0  0  0  0  0  0  0
   68.1150  -27.4763   16.5318 H   0  0  0  0  0  0  0  0  0  0  0  0
   68.1089  -26.5309   18.0300 H   0  0  0  0  0  0  0  0  0  0  0  0
   70.1414  -25.3046   17.2644 H   0  0  0  0  0  0  0  0  0  0  0  0
   70.1474  -26.2500   15.7662 H   0  0  0  0  0  0  0  0  0  0  0  0
   70.3694  -28.3505   17.0925 H   0  0  0  0  0  0  0  0  0  0  0  0
   70.3633  -27.4051   18.5908 H   0  0  0  0  0  0  0  0  0  0  0  0
   72.3958  -26.1788   17.8252 H   0  0  0  0  0  0  0  0  0  0  0  0
   72.4018  -27.1242   16.3269 H   0  0  0  0  0  0  0  0  0  0  0  0
   72.6238  -29.2248   17.6533 H   0  0  0  0  0  0  0  0  0  0  0  0
   72.6177  -28.2793   19.1515 H   0  0  0  0  0  0  0  0  0  0  0  0
   74.6500  -27.0524   18.3846 H   0  0  0  0  0  0  0  0  0  0  0  0
   74.6564  -27.9999   16.8877 H   0  0  0  0  0  0  0  0  0  0  0  0
   74.8784  -30.0986   18.2171 H   0  0  0  0  0  0  0  0  0  0  0  0
   74.8719  -29.1511   19.7140 H   0  0  0  0  0  0  0  0  0  0  0  0
   76.9043  -27.9256   18.9471 H   0  0  0  0  0  0  0  0  0  0  0  0
   76.9108  -28.8731   17.4502 H   0  0  0  0  0  0  0  0  0  0  0  0
   77.1328  -30.9717   18.7795 H   0  0  0  0  0  0  0  0  0  0  0  0
   77.1263  -30.0242   20.2764 H   0  0  0  0  0  0  0  0  0  0  0  0
   79.1587  -28.7988   19.5095 H   0  0  0  0  0  0  0  0  0  0  0  0
   79.1652  -29.7462   18.0126 H   0  0  0  0  0  0  0  0  0  0  0  0
   79.3871  -31.8449   19.3420 H   0  0  0  0  0  0  0  0  0  0  0  0
   79.3807  -30.8974   20.8389 H   0  0  0  0  0  0  0  0  0  0  0  0
   81.4133  -29.6725   20.0733 H   0  0  0  0  0  0  0  0  0  0  0  0
   81.4194  -30.6180   18.5751 H   0  0  0  0  0  0  0  0  0  0  0  0
   81.6413  -32.7185   19.9014 H   0  0  0  0  0  0  0  0  0  0  0  0
   81.6353  -31.7731   21.3997 H   0  0  0  0  0  0  0  0  0  0  0  0
   83.6677  -30.5468   20.6341 H   0  0  0  0  0  0  0  0  0  0  0  0
   83.6738  -31.4922   19.1359 H   0  0  0  0  0  0  0  0  0  0  0  0
   83.8966  -33.5928   20.4613 H   0  0  0  0  0  0  0  0  0  0  0  0
   83.8884  -32.6483   21.9603 H   0  0  0  0  0  0  0  0  0  0  0  0
   85.9204  -31.4201   21.1963 H   0  0  0  0  0  0  0  0  0  0  0  0
   85.9290  -32.3662   19.6991 H   0  0  0  0  0  0  0  0  0  0  0  0
   86.1594  -34.4677   21.0276 H   0  0  0  0  0  0  0  0  0  0  0  0
   86.1508  -33.5208   22.5261 H   0  0  0  0  0  0  0  0  0  0  0  0
   88.1962  -33.2501   20.2676 H   0  0  0  0  0  0  0  0  0  0  0  0
   88.4637  -34.0528   21.8272 H   0  0  0  0  0  0  0  0  0  0  0  0
   88.1876  -32.3011   21.7694 H   0  0  0  0  0  0  0  0  0  0  0  0
  1  2  2  0  0  0  0
  2  3  1  0  0  0  0
  2 81  1  0  0  0  0
  3  4  1  0  0  0  0
  3 82  1  0  0  0  0
  3 83  1  0  0  0  0
  4  5  1  0  0  0  0
  4 84  1  0  0  0  0
  4 85  1  0  0  0  0
  5  6  1  0  0  0  0
  5 86  1  0  0  0  0
  5 87  1  0  0  0  0
  6  7  1  0  0  0  0
  7  8  1  0  0  0  0
  8  9  1  0  0  0  0
  9 10  1  0  0  0  0
 10 11  1  0  0  0  0
 11 12  1  0  0  0  0
 11 88  1  0  0  0  0
 11 89  1  0  0  0  0
 12 13  1  0  0  0  0
 12 90  1  0  0  0  0
 12 91  1  0  0  0  0
 13 14  1  0  0  0  0
 13 92  1  0  0  0  0
 13 93  1  0  0  0  0
 14 15  1  0  0  0  0
 15 16  1  0  0  0  0
 16 17  1  0  0  0  0
 17 18  1  0  0  0  0
 18 19  1  0  0  0  0
 19 20  1  0  0  0  0
 20 21  1  0  0  0  0
 21 22  1  0  0  0  0
 22 23  1  0  0  0  0
 23 24  1  0  0  0  0
 24 25  1  0  0  0  0
 24 94  1  0  0  0  0
 24 95  1  0  0  0  0
 25 26  1  0  0  0  0
 25 96  1  0  0  0  0
 25 97  1  0  0  0  0
 26 27  1  0  0  0  0
 26 98  1  0  0  0  0
 26 99  1  0  0  0  0
 27 28  1  0  0  0  0
 27100  1  0  0  0  0
 27101  1  0  0  0  0
 28 29  1  0  0  0  0
 28102  1  0  0  0  0
 28103  1  0  0  0  0
 29 30  1  0  0  0  0
 29104  1  0  0  0  0
 29105  1  0  0  0  0
 30 31  1  0  0  0  0
 30106  1  0  0  0  0
 30107  1  0  0  0  0
 31 32  1  0  0  0  0
 31108  1  0  0  0  0
 31109  1  0  0  0  0
 32 33  1  0  0  0  0
 32110  1  0  0  0  0
 32111  1  0  0  0  0
 33 34  1  0  0  0  0
 33112  1  0  0  0  0
 33113  1  0  0  0  0
 34 35  1  0  0  0  0
 34114  1  0  0  0  0
 34115  1  0  0  0  0
 35 36  1  0  0  0  0
 35116  1  0  0  0  0
 35117  1  0  0  0  0
 36 37  1  0  0  0  0
 36118  1  0  0  0  0
 36119  1  0  0  0  0
 37 38  1  0  0  0  0
 37120  1  0  0  0  0
 37121  1  0  0  0  0
 38 39  1  0  0  0  0
 38122  1  0  0  0  0
 38123  1  0  0  0  0
 39 40  1  0  0  0  0
 39124  1  0  0  0  0
 39125  1  0  0  0  0
 40 41  1  0  0  0  0
 40126  1  0  0  0  0
 40127  1  0  0  0  0
 41 42  1  0  0  0  0
 41128  1  0  0  0  0
 41129  1  0  0  0  0
 42 43  1  0  0  0  0
 42130  1  0  0  0  0
 42131  1  0  0  0  0
 43 44  1  0  0  0  0
 43132  1  0  0  0  0
 43133  1  0  0  0  0
 44 45  1  0  0  0  0
 44134  1  0  0  0  0
 44135  1  0  0  0  0
 45 46  1  0  0  0  0
 45136  1  0  0  0  0
 45137  1  0  0  0  0
 46 47  1  0  0  0  0
 46138  1  0  0  0  0
 46139  1  0  0  0  0
 47 48  1  0  0  0  0
 47140  1  0  0  0  0
 47141  1  0  0  0  0
 48 49  1  0  0  0  0
 48142  1  0  0  0  0
 48143  1  0  0  0  0
 49 50  1  0  0  0  0
 49144  1  0  0  0  0
 49145  1  0  0  0  0
 50 51  1  0  0  0  0
 50146  1  0  0  0  0
 50147  1  0  0  0  0
 51 52  1  0  0  0  0
 51148  1  0  0  0  0
 51149  1  0  0  0  0
 52 53  1  0  0  0  0
 52150  1  0  0  0  0
 52151  1  0  0  0  0
 53 54  1  0  0  0  0
 53152  1  0  0  0  0
 53153  1  0  0  0  0
 54 55  1  0  0  0  0
 54154  1  0  0  0  0
 54155  1  0  0  0  0
 55 56  1  0  0  0  0
 55156  1  0  0  0  0
 55157  1  0  0  0  0
 56 57  1  0  0  0  0
 56158  1  0  0  0  0
 56159  1  0  0  0  0
 57 58  1  0  0  0  0
 57160  1  0  0  0  0
 57161  1  0  0  0  0
 58 59  1  0  0  0  0
 58162  1  0  0  0  0
 58163  1  0  0  0  0
 59 60  1  0  0  0  0
 59164  1  0  0  0  0
 59165  1  0  0  0  0
 60 61  1  0  0  0  0
 60166  1  0  0  0  0
 60167  1  0  0  0  0
 61 62  1  0  0  0  0
 61168  1  0  0  0  0
 61169  1  0  0  0  0
 62 63  1  0  0  0  0
 62170  1  0  0  0  0
 62171  1  0  0  0  0
 63 64  1  0  0  0  0
 63172  1  0  0  0  0
 63173  1  0  0  0  0
 64 65  1  0  0  0  0
 64174  1  0  0  0  0
 64175  1  0  0  0  0
 65 66  1  0  0  0  0
 65176  1  0  0  0  0
 65177  1  0  0  0  0
 66 67  1  0  0  0  0
 66178  1  0  0  0  0
 66179  1  0  0  0  0
 67 68  1  0  0  0  0
 67180  1  0  0  0  0
 67181  1  0  0  0  0
 68 69  1  0  0  0  0
 68182  1  0  0  0  0
 68183  1  0  0  0  0
 69 70  1  0  0  0  0
 69184  1  0  0  0  0
 69185  1  0  0  0  0
 70 71  1  0  0  0  0
 70186  1  0  0  0  0
 70187  1  0  0  0  0
 71 72  1  0  0  0  0
 71188  1  0  0  0  0
 71189  1  0  0  0  0
 72 73  1  0  0  0  0
 72190  1  0  0  0  0
 72191  1  0  0  0  0
 73 74  1  0  0  0  0
 73192  1  0  0  0  0
 73193  1  0  0  0  0
 74 75  1  0  0  0  0
 74194  1  0  0  0  0
 74195  1  0  0  0  0
 75 76  1  0  0  0  0
 75196  1  0  0  0  0
 75197  1  0  0  0  0
 76 77  1  0  0  0  0
 76198  1  0  0  0  0
 76199  1  0  0  0  0
 77 78  1  0  0  0  0
 77200  1  0  0  0  0
 77201  1  0  0  0  0
 78 79  1  0  0  0  0
 78202  1  0  0  0  0
 78203  1  0  0  0  0
 79 80  1  0  0  0  0
 79204  1  0  0  0  0
 79205  1  0  0  0  0
 80206  1  0  0  0  0
 80207  1  0  0  0  0
 80208  1  0  0  0  0
M  END
$$$$
