
 OpenBabel04232216423D

 51 52  0  0  0  0  0  0  0  0999 V2000
    6.9072    1.0052   -3.2147 C   0  0  0  0  0  0  0  0  0  0  0  0
    6.1550    1.1301   -2.0720 C   0  0  0  0  0  0  0  0  0  0  0  0
    5.0674    0.1082   -1.8216 C   0  0  0  0  0  0  0  0  0  0  0  0
    5.0428   -0.8839   -0.8677 C   0  0  0  0  0  0  0  0  0  0  0  0
    5.5308   -0.8334    0.5507 C   0  0  0  0  0  0  0  0  0  0  0  0
    4.6248   -2.2690   -1.3136 C   0  0  0  0  0  0  0  0  0  0  0  0
    5.4844   -3.2585   -1.7236 C   0  0  0  0  0  0  0  0  0  0  0  0
    5.3906   -3.5623   -3.2183 C   0  0  0  0  0  0  0  0  0  0  0  0
    6.2215   -2.4043   -3.7100 C   0  0  0  0  0  0  0  0  0  0  0  0
    7.4151   -2.2904   -3.2598 N   0  0  0  0  0  0  0  0  0  0  0  0
    7.5289   -1.3082   -2.2626 N   0  0  0  0  0  0  0  0  0  0  0  0
    8.2669   -1.5059   -1.1965 C   0  0  0  0  0  0  0  0  0  0  0  0
    8.5722   -0.3619   -0.2072 C   0  0  0  0  0  0  0  0  0  0  0  0
    9.9326    0.3020   -0.2479 C   0  0  0  0  0  0  0  0  0  0  0  0
    8.9474   -2.7695   -0.9455 C   0  0  0  0  0  0  0  0  0  0  0  0
    6.7143   -4.0201   -1.0459 C   0  0  0  0  0  0  0  0  0  0  0  0
    8.2657   -3.8615   -1.3713 C   0  0  0  0  0  0  0  0  0  0  0  0
    8.9791   -4.6305   -2.4530 C   0  0  0  0  0  0  0  0  0  0  0  0
   10.3160   -4.4920   -2.7119 C   0  0  0  0  0  0  0  0  0  0  0  0
   10.6476   -3.7304   -3.9422 C   0  0  0  0  0  0  0  0  0  0  0  0
   11.0414   -2.4480   -3.8171 C   0  0  0  0  0  0  0  0  0  0  0  0
   11.0144   -1.3320   -4.7551 C   0  0  0  0  0  0  0  0  0  0  0  0
   10.3971   -0.1334   -4.5318 C   0  0  0  0  0  0  0  0  0  0  0  0
    9.2146    0.1552   -3.7008 C   0  0  0  0  0  0  0  0  0  0  0  0
    8.4087    1.2490   -3.4689 C   0  0  0  0  0  0  0  0  0  0  0  0
    6.5144    0.3610   -3.9957 H   0  0  0  0  0  0  0  0  0  0  0  0
    6.4780    1.7092   -1.2165 H   0  0  0  0  0  0  0  0  0  0  0  0
    4.5053   -0.0692   -2.7390 H   0  0  0  0  0  0  0  0  0  0  0  0
    4.6767   -0.7067    1.2265 H   0  0  0  0  0  0  0  0  0  0  0  0
    6.1878    0.0109    0.7507 H   0  0  0  0  0  0  0  0  0  0  0  0
    6.0394   -1.7531    0.8502 H   0  0  0  0  0  0  0  0  0  0  0  0
    3.7480   -2.1234   -1.9514 H   0  0  0  0  0  0  0  0  0  0  0  0
    5.8199   -4.5156   -3.5104 H   0  0  0  0  0  0  0  0  0  0  0  0
    4.3589   -3.4947   -3.6052 H   0  0  0  0  0  0  0  0  0  0  0  0
    5.6385   -1.5633   -4.1714 H   0  0  0  0  0  0  0  0  0  0  0  0
    8.4270   -0.7834    0.7959 H   0  0  0  0  0  0  0  0  0  0  0  0
    7.8480    0.4211   -0.3376 H   0  0  0  0  0  0  0  0  0  0  0  0
   10.7485   -0.4081   -0.1658 H   0  0  0  0  0  0  0  0  0  0  0  0
   10.0050    1.0245    0.5738 H   0  0  0  0  0  0  0  0  0  0  0  0
   10.0990    0.8957   -1.1599 H   0  0  0  0  0  0  0  0  0  0  0  0
   10.0182   -2.6117   -1.0988 H   0  0  0  0  0  0  0  0  0  0  0  0
    6.6234   -3.8600    0.0370 H   0  0  0  0  0  0  0  0  0  0  0  0
    6.5129   -5.0941   -1.1996 H   0  0  0  0  0  0  0  0  0  0  0  0
    8.3441   -4.7214   -3.3338 H   0  0  0  0  0  0  0  0  0  0  0  0
   11.0152   -4.3175   -1.8806 H   0  0  0  0  0  0  0  0  0  0  0  0
   10.2889   -4.1376   -4.8766 H   0  0  0  0  0  0  0  0  0  0  0  0
   11.4298   -2.1139   -2.8562 H   0  0  0  0  0  0  0  0  0  0  0  0
   11.8242   -1.3660   -5.4855 H   0  0  0  0  0  0  0  0  0  0  0  0
   10.9094    0.7470   -4.9117 H   0  0  0  0  0  0  0  0  0  0  0  0
    9.5507   -0.3074   -2.7782 H   0  0  0  0  0  0  0  0  0  0  0  0
    8.7210    1.8461   -2.6031 H   0  0  0  0  0  0  0  0  0  0  0  0
  1  2  2  3  0  0  0
  1 25  1  0  0  0  0
  1 26  1  0  0  0  0
  2  3  1  0  0  0  0
  2 27  1  0  0  0  0
  3  4  2  3  0  0  0
  3 28  1  0  0  0  0
  4  5  1  0  0  0  0
  4  6  1  0  0  0  0
  5 29  1  0  0  0  0
  5 30  1  0  0  0  0
  5 31  1  0  0  0  0
  6  7  2  3  0  0  0
  6 32  1  0  0  0  0
  7  8  1  0  0  0  0
  7 16  1  0  0  0  0
  8  9  1  0  0  0  0
  8 33  1  0  0  0  0
  8 34  1  0  0  0  0
  9 10  2  3  0  0  0
  9 35  1  0  0  0  0
 10 11  1  0  0  0  0
 11 12  2  3  0  0  0
 12 13  1  0  0  0  0
 12 15  1  0  0  0  0
 13 14  1  0  0  0  0
 13 36  1  0  0  0  0
 13 37  1  0  0  0  0
 14 38  1  0  0  0  0
 14 39  1  0  0  0  0
 14 40  1  0  0  0  0
 15 17  2  3  0  0  0
 15 41  1  0  0  0  0
 16 17  1  0  0  0  0
 16 42  1  0  0  0  0
 16 43  1  0  0  0  0
 17 18  1  0  0  0  0
 18 19  2  3  0  0  0
 18 44  1  0  0  0  0
 19 20  1  0  0  0  0
 19 45  1  0  0  0  0
 20 21  2  3  0  0  0
 20 46  1  0  0  0  0
 21 22  1  0  0  0  0
 21 47  1  0  0  0  0
 22 23  2  3  0  0  0
 22 48  1  0  0  0  0
 23 24  1  0  0  0  0
 23 49  1  0  0  0  0
 24 25  2  3  0  0  0
 24 50  1  0  0  0  0
 25 51  1  0  0  0  0
M  END
$$$$
