
 OpenBabel04232216513D

 76 77  0  0  0  0  0  0  0  0999 V2000
    9.3246   -3.7937    1.4445 C   0  0  0  0  0  0  0  0  0  0  0  0
    9.7712   -4.9710    2.5771 C   0  0  0  0  0  0  0  0  0  0  0  0
    8.1064   -5.2082    3.0799 N   0  0  0  0  0  0  0  0  0  0  0  0
    6.7454   -4.6269    2.6989 C   0  0  0  0  0  0  0  0  0  0  0  0
    5.2916   -3.7148    3.6453 C   0  0  0  0  0  0  0  0  0  0  0  0
    3.6353   -4.1809    3.8685 N   0  0  0  0  0  0  0  0  0  0  0  0
    2.3333   -4.3437    5.1776 N   0  0  0  0  0  0  0  0  0  0  0  0
    2.0910   -5.6054    6.2657 C   0  0  0  0  0  0  0  0  0  0  0  0
    3.4918   -5.7128    6.3023 C   0  0  0  0  0  0  0  0  0  0  0  0
    4.6691   -6.2953    6.9075 C   0  0  0  0  0  0  0  0  0  0  0  0
    5.5260   -5.4611    6.0107 C   0  0  0  0  0  0  0  0  0  0  0  0
    6.9409   -5.5708    6.3687 C   0  0  0  0  0  0  0  0  0  0  0  0
    7.4002   -4.3722    5.6580 C   0  0  0  0  0  0  0  0  0  0  0  0
    8.8185   -4.1079    5.5071 C   0  0  0  0  0  0  0  0  0  0  0  0
    5.7842   -2.4115    3.5973 C   0  0  0  0  0  0  0  0  0  0  0  0
    7.2449   -2.0979    3.7747 C   0  0  0  0  0  0  0  0  0  0  0  0
    8.5746   -1.7679    3.8859 C   0  0  0  0  0  0  0  0  0  0  0  0
    9.5249   -0.9731    2.9248 C   0  0  0  0  0  0  0  0  0  0  0  0
    9.3422   -2.7541    4.7991 C   0  0  0  0  0  0  0  0  0  0  0  0
   10.6655   -2.7027    4.8815 C   0  0  0  0  0  0  0  0  0  0  0  0
   11.3287   -3.7174    5.5853 C   0  0  0  0  0  0  0  0  0  0  0  0
   12.6336   -3.7577    5.5527 C   0  0  0  0  0  0  0  0  0  0  0  0
   13.1730   -4.7274    6.4319 C   0  0  0  0  0  0  0  0  0  0  0  0
   14.3978   -4.4065    6.6993 C   0  0  0  0  0  0  0  0  0  0  0  0
   15.2062   -5.1700    7.5183 C   0  0  0  0  0  0  0  0  0  0  0  0
   16.4848   -4.7122    7.3636 C   0  0  0  0  0  0  0  0  0  0  0  0
   17.6026   -5.3613    7.6446 C   0  0  0  0  0  0  0  0  0  0  0  0
   17.9522   -6.0142    8.7105 C   0  0  0  0  0  0  0  0  0  0  0  0
   18.4263   -7.3764    8.3815 C   0  0  0  0  0  0  0  0  0  0  0  0
   18.4825   -7.6543    7.0246 C   0  0  0  0  0  0  0  0  0  0  0  0
   17.0370   -7.8330    6.0020 C   0  0  0  0  0  0  0  0  0  0  0  0
   16.1427   -7.0513    4.9941 C   0  0  0  0  0  0  0  0  0  0  0  0
   14.3778   -6.7053    4.4107 C   0  0  0  0  0  0  0  0  0  0  0  0
   13.1224   -5.9064    3.6007 C   0  0  0  0  0  0  0  0  0  0  0  0
   11.2502   -5.5495    3.2016 C   0  0  0  0  0  0  0  0  0  0  0  0
    8.4149   -3.4107    1.9236 H   0  0  0  0  0  0  0  0  0  0  0  0
    8.8569   -4.1681    0.5208 H   0  0  0  0  0  0  0  0  0  0  0  0
    9.6027   -2.7475    1.2712 H   0  0  0  0  0  0  0  0  0  0  0  0
    6.6828   -4.1025    1.7043 H   0  0  0  0  0  0  0  0  0  0  0  0
    3.4196   -4.9224    3.2186 H   0  0  0  0  0  0  0  0  0  0  0  0
    1.4891   -3.7587    5.1717 H   0  0  0  0  0  0  0  0  0  0  0  0
    1.6674   -6.5993    6.0148 H   0  0  0  0  0  0  0  0  0  0  0  0
    1.7852   -5.3557    7.3132 H   0  0  0  0  0  0  0  0  0  0  0  0
    3.6372   -4.6690    6.6409 H   0  0  0  0  0  0  0  0  0  0  0  0
    3.5757   -6.0775    5.2632 H   0  0  0  0  0  0  0  0  0  0  0  0
    4.8221   -7.3471    6.6944 H   0  0  0  0  0  0  0  0  0  0  0  0
    4.8239   -5.9975    7.9424 H   0  0  0  0  0  0  0  0  0  0  0  0
    5.2398   -4.3825    6.0656 H   0  0  0  0  0  0  0  0  0  0  0  0
    5.3692   -5.7471    4.9490 H   0  0  0  0  0  0  0  0  0  0  0  0
    7.2735   -6.5295    5.9642 H   0  0  0  0  0  0  0  0  0  0  0  0
    7.0842   -5.4309    7.4264 H   0  0  0  0  0  0  0  0  0  0  0  0
    6.8971   -3.4568    5.9325 H   0  0  0  0  0  0  0  0  0  0  0  0
    7.0572   -4.6967    4.6873 H   0  0  0  0  0  0  0  0  0  0  0  0
    9.2381   -5.0011    5.0075 H   0  0  0  0  0  0  0  0  0  0  0  0
    9.1264   -4.1635    6.5463 H   0  0  0  0  0  0  0  0  0  0  0  0
    5.1471   -1.4741    3.4672 H   0  0  0  0  0  0  0  0  0  0  0  0
    7.4126   -3.0935    4.0504 H   0  0  0  0  0  0  0  0  0  0  0  0
    9.0560   -0.5285    2.0536 H   0  0  0  0  0  0  0  0  0  0  0  0
   10.2611   -1.6985    2.5171 H   0  0  0  0  0  0  0  0  0  0  0  0
   10.2353   -0.2773    3.3815 H   0  0  0  0  0  0  0  0  0  0  0  0
   11.2906   -1.9921    4.3585 H   0  0  0  0  0  0  0  0  0  0  0  0
   10.8754   -4.5618    6.1003 H   0  0  0  0  0  0  0  0  0  0  0  0
   13.2233   -3.0527    4.9880 H   0  0  0  0  0  0  0  0  0  0  0  0
   12.6570   -5.6258    6.7863 H   0  0  0  0  0  0  0  0  0  0  0  0
   14.8396   -3.6373    6.1203 H   0  0  0  0  0  0  0  0  0  0  0  0
   14.9944   -6.1973    7.8872 H   0  0  0  0  0  0  0  0  0  0  0  0
   16.6823   -3.8185    6.7059 H   0  0  0  0  0  0  0  0  0  0  0  0
   18.2010   -5.4608    6.7364 H   0  0  0  0  0  0  0  0  0  0  0  0
   18.8832   -5.4635    9.0978 H   0  0  0  0  0  0  0  0  0  0  0  0
   19.1771   -7.6588    9.1498 H   0  0  0  0  0  0  0  0  0  0  0  0
   19.5468   -7.8969    6.7564 H   0  0  0  0  0  0  0  0  0  0  0  0
   17.5240   -8.8012    5.6632 H   0  0  0  0  0  0  0  0  0  0  0  0
   16.7584   -6.1784    4.7205 H   0  0  0  0  0  0  0  0  0  0  0  0
   15.0411   -5.8399    4.1350 H   0  0  0  0  0  0  0  0  0  0  0  0
   13.6128   -4.9884    3.1549 H   0  0  0  0  0  0  0  0  0  0  0  0
   11.7601   -4.7118    2.6284 H   0  0  0  0  0  0  0  0  0  0  0  0
  1  2  1  0  0  0  0
  1 36  1  0  0  0  0
  1 37  1  0  0  0  0
  1 38  1  0  0  0  0
  2  3  1  0  0  0  0
  2 35  2  3  0  0  0
  3  4  2  3  0  0  0
  4  5  1  0  0  0  0
  4 39  1  0  0  0  0
  5  6  1  0  0  0  0
  5 15  2  3  0  0  0
  6  7  1  0  0  0  0
  6 40  1  0  0  0  0
  7  8  1  0  0  0  0
  7 41  1  0  0  0  0
  8  9  1  0  0  0  0
  8 42  1  0  0  0  0
  8 43  1  0  0  0  0
  9 10  1  0  0  0  0
  9 44  1  0  0  0  0
  9 45  1  0  0  0  0
 10 11  1  0  0  0  0
 10 46  1  0  0  0  0
 10 47  1  0  0  0  0
 11 12  1  0  0  0  0
 11 48  1  0  0  0  0
 11 49  1  0  0  0  0
 12 13  1  0  0  0  0
 12 50  1  0  0  0  0
 12 51  1  0  0  0  0
 13 14  1  0  0  0  0
 13 52  1  0  0  0  0
 13 53  1  0  0  0  0
 14 19  1  0  0  0  0
 14 54  1  0  0  0  0
 14 55  1  0  0  0  0
 15 16  1  0  0  0  0
 15 56  1  0  0  0  0
 16 17  2  3  0  0  0
 16 57  1  0  0  0  0
 17 18  1  0  0  0  0
 17 19  1  0  0  0  0
 18 58  1  0  0  0  0
 18 59  1  0  0  0  0
 18 60  1  0  0  0  0
 19 20  2  3  0  0  0
 20 21  1  0  0  0  0
 20 61  1  0  0  0  0
 21 22  2  3  0  0  0
 21 62  1  0  0  0  0
 22 23  1  0  0  0  0
 22 63  1  0  0  0  0
 23 24  2  3  0  0  0
 23 64  1  0  0  0  0
 24 25  1  0  0  0  0
 24 65  1  0  0  0  0
 25 26  2  3  0  0  0
 25 66  1  0  0  0  0
 26 27  1  0  0  0  0
 26 67  1  0  0  0  0
 27 28  2  3  0  0  0
 27 68  1  0  0  0  0
 28 29  1  0  0  0  0
 28 69  1  0  0  0  0
 29 30  2  3  0  0  0
 29 70  1  0  0  0  0
 30 31  1  0  0  0  0
 30 71  1  0  0  0  0
 31 32  2  3  0  0  0
 31 72  1  0  0  0  0
 32 33  1  0  0  0  0
 32 73  1  0  0  0  0
 33 34  2  3  0  0  0
 33 74  1  0  0  0  0
 34 35  1  0  0  0  0
 34 75  1  0  0  0  0
 35 76  1  0  0  0  0
M  END
$$$$
