
 OpenBabel04232216483D

 57 58  0  0  1  0  0  0  0  0999 V2000
    2.6387    1.0620    0.7249 C   0  0  0  0  0  0  0  0  0  0  0  0
    3.9217    0.4707    1.2798 C   0  0  0  0  0  0  0  0  0  0  0  0
    5.1166    1.3409    1.3892 C   0  0  0  0  0  0  0  0  0  0  0  0
    6.2374    1.3327    2.1425 C   0  0  0  0  0  0  0  0  0  0  0  0
    6.7650    0.4291    3.2071 C   0  0  0  0  0  0  0  0  0  0  0  0
    8.3182    0.5533    3.5679 C   0  0  0  0  0  0  0  0  0  0  0  0
    9.1131   -0.2110    4.7311 C   0  0  0  0  0  0  0  0  0  0  0  0
   10.1764   -1.3778    4.6030 C   0  0  0  0  0  0  0  0  0  0  0  0
    9.8908   -2.7164    3.9015 C   0  0  0  0  0  0  0  0  0  0  0  0
    9.3103   -2.4408    2.5424 C   0  0  0  0  0  0  0  0  0  0  0  0
    8.6227   -3.5568    1.8287 C   0  0  0  0  0  3  0  0  0  0  0  0
    7.9356   -3.1474    0.5483 C   0  0  0  0  0  0  0  0  0  0  0  0
    6.4797   -3.6401    0.4561 C   0  0  0  0  0  0  0  0  0  0  0  0
    5.4288   -2.5099    0.2117 C   0  0  3  0  0  0  0  0  0  0  0  0
    4.2592   -3.1543   -0.6004 C   0  0  0  0  0  0  0  0  0  0  0  0
    3.3032   -2.2166   -1.2112 N   0  0  0  0  0  0  0  0  0  0  0  0
    2.3601   -2.9213   -2.0821 C   0  0  0  0  0  0  0  0  0  0  0  0
    1.2897   -1.9563   -2.6177 C   0  0  0  0  0  0  0  0  0  0  0  0
    0.2907   -2.6651   -3.5087 C   0  0  0  0  0  0  0  0  0  0  0  0
    5.9789   -0.6114    3.6137 C   0  0  0  0  0  0  0  0  0  0  0  0
    5.8939   -1.6328    2.5577 C   0  0  0  0  0  0  0  0  0  0  0  0
    5.0724   -1.7063    1.5001 C   0  0  0  0  0  0  0  0  0  0  0  0
    3.9062   -0.8782    1.3889 C   0  0  0  0  0  0  0  0  0  0  0  0
    2.8133    1.9801    0.1578 H   0  0  0  0  0  0  0  0  0  0  0  0
    1.9071    1.2511    1.5154 H   0  0  0  0  0  0  0  0  0  0  0  0
    2.1735    0.3617    0.0104 H   0  0  0  0  0  0  0  0  0  0  0  0
    5.0656    2.1488    0.6547 H   0  0  0  0  0  0  0  0  0  0  0  0
    6.9450    2.1332    1.9163 H   0  0  0  0  0  0  0  0  0  0  0  0
    8.3753    1.6043    3.9070 H   0  0  0  0  0  0  0  0  0  0  0  0
    8.9147    0.5306    2.6471 H   0  0  0  0  0  0  0  0  0  0  0  0
    8.4377   -0.4344    5.5607 H   0  0  0  0  0  0  0  0  0  0  0  0
    9.7740    0.5847    5.1226 H   0  0  0  0  0  0  0  0  0  0  0  0
   11.0978   -0.9724    4.1618 H   0  0  0  0  0  0  0  0  0  0  0  0
   10.4681   -1.6462    5.6322 H   0  0  0  0  0  0  0  0  0  0  0  0
    9.2443   -3.3496    4.5207 H   0  0  0  0  0  0  0  0  0  0  0  0
   10.8318   -3.2773    3.7791 H   0  0  0  0  0  0  0  0  0  0  0  0
   10.0547   -1.9776    1.8917 H   0  0  0  0  0  0  0  0  0  0  0  0
    8.5621   -1.6869    2.7194 H   0  0  0  0  0  0  0  0  0  0  0  0
    8.2463   -4.4113    2.3853 H   0  0  0  0  0  0  0  0  0  0  0  0
    8.5145   -3.5479   -0.2890 H   0  0  0  0  0  0  0  0  0  0  0  0
    7.9750   -2.0542    0.4426 H   0  0  0  0  0  0  0  0  0  0  0  0
    6.1783   -4.2194    1.3367 H   0  0  0  0  0  0  0  0  0  0  0  0
    6.4572   -4.3459   -0.3806 H   0  0  0  0  0  0  0  0  0  0  0  0
    5.8882   -1.7691   -0.4637 H   0  0  0  0  0  0  0  0  0  0  0  0
    3.7281   -3.8658    0.0375 H   0  0  0  0  0  0  0  0  0  0  0  0
    4.7129   -3.7178   -1.4268 H   0  0  0  0  0  0  0  0  0  0  0  0
    3.8041   -1.5039   -1.7429 H   0  0  0  0  0  0  0  0  0  0  0  0
    1.8668   -3.7270   -1.5263 H   0  0  0  0  0  0  0  0  0  0  0  0
    2.8948   -3.3706   -2.9270 H   0  0  0  0  0  0  0  0  0  0  0  0
    1.7847   -1.1490   -3.1795 H   0  0  0  0  0  0  0  0  0  0  0  0
    0.7660   -1.4834   -1.7738 H   0  0  0  0  0  0  0  0  0  0  0  0
    0.7836   -3.1107   -4.3759 H   0  0  0  0  0  0  0  0  0  0  0  0
   -0.4710   -1.9675   -3.8786 H   0  0  0  0  0  0  0  0  0  0  0  0
   -0.2206   -3.4617   -2.9607 H   0  0  0  0  0  0  0  0  0  0  0  0
    4.9294   -0.3313    3.8030 H   0  0  0  0  0  0  0  0  0  0  0  0
    6.7788   -2.2208    2.5383 H   0  0  0  0  0  0  0  0  0  0  0  0
    2.9842   -1.4107    1.2430 H   0  0  0  0  0  0  0  0  0  0  0  0
  1  2  1  0  0  0  0
  1 24  1  0  0  0  0
  1 25  1  0  0  0  0
  1 26  1  0  0  0  0
  2  3  1  0  0  0  0
  2 23  2  0  0  0  0
  3  4  2  0  0  0  0
  3 27  1  0  0  0  0
  4  5  1  0  0  0  0
  4 28  1  0  0  0  0
  5  6  1  0  0  0  0
  5 20  2  0  0  0  0
  6  7  1  0  0  0  0
  6 29  1  0  0  0  0
  6 30  1  0  0  0  0
  7  8  1  0  0  0  0
  7 31  1  0  0  0  0
  7 32  1  0  0  0  0
  8  9  1  0  0  0  0
  8 33  1  0  0  0  0
  8 34  1  0  0  0  0
  9 10  1  0  0  0  0
  9 35  1  0  0  0  0
  9 36  1  0  0  0  0
 10 11  1  0  0  0  0
 10 37  1  0  0  0  0
 10 38  1  0  0  0  0
 11 12  1  0  0  0  0
 11 39  1  0  0  0  0
 12 13  1  0  0  0  0
 12 40  1  0  0  0  0
 12 41  1  0  0  0  0
 13 14  1  0  0  0  0
 13 42  1  0  0  0  0
 13 43  1  0  0  0  0
 14 15  1  0  0  0  0
 14 22  1  0  0  0  0
 14 44  1  0  0  0  0
 15 16  1  0  0  0  0
 15 45  1  0  0  0  0
 15 46  1  0  0  0  0
 16 17  1  0  0  0  0
 16 47  1  0  0  0  0
 17 18  1  0  0  0  0
 17 48  1  0  0  0  0
 17 49  1  0  0  0  0
 18 19  1  0  0  0  0
 18 50  1  0  0  0  0
 18 51  1  0  0  0  0
 19 52  1  0  0  0  0
 19 53  1  0  0  0  0
 19 54  1  0  0  0  0
 20 21  1  0  0  0  0
 20 55  1  0  0  0  0
 21 22  2  0  0  0  0
 21 56  1  0  0  0  0
 22 23  1  0  0  0  0
 23 57  1  0  0  0  0
M  END
$$$$
