
 OpenBabel04232216523D

 63 64  0  0  0  0  0  0  0  0999 V2000
    1.0799    2.2355    1.6621 C   0  0  0  0  0  0  0  0  0  0  0  0
    2.5840    2.1710    1.9015 C   0  0  0  0  0  0  0  0  0  0  0  0
    3.3283    1.4791    0.7654 C   0  0  0  0  0  0  0  0  0  0  0  0
    4.8140    1.2064    1.1004 C   0  0  0  0  0  0  0  0  0  0  0  0
    5.8045    2.1606    0.5904 C   0  0  0  0  0  0  0  0  0  0  0  0
    7.1228    2.4960    0.7457 C   0  0  0  0  0  0  0  0  0  0  0  0
    7.4638    3.8499    0.1002 C   0  0  0  0  0  0  0  0  0  0  0  0
    8.4095    3.8222   -1.0973 C   0  0  0  0  0  0  0  0  0  0  0  0
    7.9368    2.9804   -2.2812 C   0  0  0  0  0  0  0  0  0  0  0  0
    6.6350    3.4483   -2.9410 C   0  0  0  0  0  0  0  0  0  0  0  0
    6.7162    4.8712   -3.4831 C   0  0  0  0  0  0  0  0  0  0  0  0
    5.4417    5.3085   -4.1634 C   0  0  0  0  0  0  0  0  0  0  0  0
    4.4339    4.6217   -4.2671 O   0  0  0  0  0  0  0  0  0  0  0  0
    8.1851    1.8904    1.6382 C   0  0  0  0  0  0  0  0  0  0  0  0
    7.6968    1.3583    2.7931 C   0  0  0  0  0  0  0  0  0  0  0  0
    7.2694   -0.0315    2.8240 C   0  0  0  0  0  0  0  0  0  0  0  0
    8.1713   -0.9543    3.3450 N   0  0  0  0  0  0  0  0  0  0  0  0
    8.9892   -1.6690    2.3616 C   0  0  0  0  0  0  0  0  0  0  0  0
   10.1212   -0.7470    1.9967 C   0  0  0  0  0  0  0  0  0  0  0  0
   11.4107   -1.3924    1.5956 C   0  0  0  0  0  0  0  0  0  0  0  0
   12.4100   -0.2516    1.4124 C   0  0  0  0  0  0  0  0  0  0  0  0
   11.8738    0.8914    0.5074 C   0  0  0  0  0  0  0  0  0  0  0  0
   11.1134    2.1510    1.0641 C   0  0  0  0  0  0  0  0  0  0  0  0
    9.6777    2.4595    1.7519 C   0  0  0  0  0  0  0  0  0  0  0  0
    6.1263   -0.5436    2.3383 C   0  0  0  0  0  0  0  0  0  0  0  0
    4.9798    0.0977    1.8218 C   0  0  0  0  0  0  0  0  0  0  0  0
    0.5908    2.7420    2.5008 H   0  0  0  0  0  0  0  0  0  0  0  0
    0.6426    1.2338    1.5798 H   0  0  0  0  0  0  0  0  0  0  0  0
    0.8484    2.7907    0.7490 H   0  0  0  0  0  0  0  0  0  0  0  0
    2.7478    1.6263    2.8432 H   0  0  0  0  0  0  0  0  0  0  0  0
    2.9622    3.1854    2.0406 H   0  0  0  0  0  0  0  0  0  0  0  0
    3.2315    2.0477   -0.1748 H   0  0  0  0  0  0  0  0  0  0  0  0
    2.8336    0.5194    0.5390 H   0  0  0  0  0  0  0  0  0  0  0  0
    5.2561    2.8272   -0.0798 H   0  0  0  0  0  0  0  0  0  0  0  0
    7.8648    4.5160    0.8775 H   0  0  0  0  0  0  0  0  0  0  0  0
    6.5504    4.3829   -0.2120 H   0  0  0  0  0  0  0  0  0  0  0  0
    9.3849    3.4494   -0.7861 H   0  0  0  0  0  0  0  0  0  0  0  0
    8.5876    4.8546   -1.4173 H   0  0  0  0  0  0  0  0  0  0  0  0
    7.8200    1.9372   -1.9640 H   0  0  0  0  0  0  0  0  0  0  0  0
    8.7340    2.9805   -3.0368 H   0  0  0  0  0  0  0  0  0  0  0  0
    5.8013    3.3652   -2.2383 H   0  0  0  0  0  0  0  0  0  0  0  0
    6.4036    2.7592   -3.7630 H   0  0  0  0  0  0  0  0  0  0  0  0
    7.5280    4.9548   -4.2126 H   0  0  0  0  0  0  0  0  0  0  0  0
    6.9011    5.5890   -2.6778 H   0  0  0  0  0  0  0  0  0  0  0  0
    5.4640    6.3345   -4.5705 H   0  0  0  0  0  0  0  0  0  0  0  0
    8.2376    1.5691    3.7159 H   0  0  0  0  0  0  0  0  0  0  0  0
    8.7736   -0.4965    4.0286 H   0  0  0  0  0  0  0  0  0  0  0  0
    8.4086   -1.8931    1.4544 H   0  0  0  0  0  0  0  0  0  0  0  0
    9.3307   -2.6122    2.7848 H   0  0  0  0  0  0  0  0  0  0  0  0
   10.3506   -0.0617    2.8253 H   0  0  0  0  0  0  0  0  0  0  0  0
    9.7649   -0.1515    1.1521 H   0  0  0  0  0  0  0  0  0  0  0  0
   11.2881   -1.9580    0.6650 H   0  0  0  0  0  0  0  0  0  0  0  0
   11.7587   -2.0939    2.3635 H   0  0  0  0  0  0  0  0  0  0  0  0
   13.3089   -0.6942    0.9571 H   0  0  0  0  0  0  0  0  0  0  0  0
   12.7292    0.1375    2.3870 H   0  0  0  0  0  0  0  0  0  0  0  0
   12.8065    1.3138    0.0947 H   0  0  0  0  0  0  0  0  0  0  0  0
   11.3579    0.4746   -0.3635 H   0  0  0  0  0  0  0  0  0  0  0  0
   11.1795    2.8613    0.2305 H   0  0  0  0  0  0  0  0  0  0  0  0
   11.8249    2.5547    1.8038 H   0  0  0  0  0  0  0  0  0  0  0  0
    9.5850    3.5461    1.6301 H   0  0  0  0  0  0  0  0  0  0  0  0
    9.9308    2.3711    2.8185 H   0  0  0  0  0  0  0  0  0  0  0  0
    5.9961   -1.6138    2.4471 H   0  0  0  0  0  0  0  0  0  0  0  0
    4.0918   -0.4692    2.0860 H   0  0  0  0  0  0  0  0  0  0  0  0
  1  2  1  0  0  0  0
  1 27  1  0  0  0  0
  1 28  1  0  0  0  0
  1 29  1  0  0  0  0
  2  3  1  0  0  0  0
  2 30  1  0  0  0  0
  2 31  1  0  0  0  0
  3  4  1  0  0  0  0
  3 32  1  0  0  0  0
  3 33  1  0  0  0  0
  4  5  1  0  0  0  0
  4 26  2  0  0  0  0
  5  6  2  0  0  0  0
  5 34  1  0  0  0  0
  6  7  1  0  0  0  0
  6 14  1  0  0  0  0
  7  8  1  0  0  0  0
  7 35  1  0  0  0  0
  7 36  1  0  0  0  0
  8  9  1  0  0  0  0
  8 37  1  0  0  0  0
  8 38  1  0  0  0  0
  9 10  1  0  0  0  0
  9 39  1  0  0  0  0
  9 40  1  0  0  0  0
 10 11  1  0  0  0  0
 10 41  1  0  0  0  0
 10 42  1  0  0  0  0
 11 12  1  0  0  0  0
 11 43  1  0  0  0  0
 11 44  1  0  0  0  0
 12 13  2  0  0  0  0
 12 45  1  0  0  0  0
 14 15  2  0  0  0  0
 14 24  1  0  0  0  0
 15 16  1  0  0  0  0
 15 46  1  0  0  0  0
 16 17  1  0  0  0  0
 16 25  2  0  0  0  0
 17 18  1  0  0  0  0
 17 47  1  0  0  0  0
 18 19  1  0  0  0  0
 18 48  1  0  0  0  0
 18 49  1  0  0  0  0
 19 20  1  0  0  0  0
 19 50  1  0  0  0  0
 19 51  1  0  0  0  0
 20 21  1  0  0  0  0
 20 52  1  0  0  0  0
 20 53  1  0  0  0  0
 21 22  1  0  0  0  0
 21 54  1  0  0  0  0
 21 55  1  0  0  0  0
 22 23  1  0  0  0  0
 22 56  1  0  0  0  0
 22 57  1  0  0  0  0
 23 24  1  0  0  0  0
 23 58  1  0  0  0  0
 23 59  1  0  0  0  0
 24 60  1  0  0  0  0
 24 61  1  0  0  0  0
 25 26  1  0  0  0  0
 25 62  1  0  0  0  0
 26 63  1  0  0  0  0
M  END
$$$$
