
 OpenBabel04232216513D

 46 46  0  0  0  0  0  0  0  0999 V2000
    2.5112    0.2699    2.6357 C   0  0  0  0  0  0  0  0  0  0  0  0
    2.5073   -1.2469    2.6292 C   0  0  0  0  0  0  0  0  0  0  0  0
    2.5194   -1.7974    1.2322 C   0  0  0  0  0  0  0  0  0  0  0  0
    3.7097   -1.5126    0.3438 C   0  0  0  0  0  0  0  0  0  0  0  0
    3.8983   -1.8725   -0.9306 C   0  0  0  0  0  0  0  0  0  0  0  0
    3.0006   -2.6626   -1.8656 C   0  0  0  0  0  0  0  0  0  0  0  0
    3.1874   -2.2299   -3.2983 C   0  0  0  0  0  0  0  0  0  0  0  0
    2.3145   -2.9852   -4.2788 C   0  0  0  0  0  0  0  0  0  0  0  0
    0.8318   -2.7833   -4.0051 C   0  0  0  0  0  0  0  0  0  0  0  0
    0.0372   -3.5050   -5.0733 C   0  0  0  0  0  0  0  0  0  0  0  0
   -1.4508   -3.3364   -4.8356 C   0  0  0  0  0  0  0  0  0  0  0  0
   -2.2146   -4.0794   -5.9145 C   0  0  0  0  0  0  0  0  0  0  0  0
   -3.7085   -3.9250   -5.6950 C   0  0  0  0  0  0  0  0  0  0  0  0
   -4.4803   -4.6634   -6.7748 C   0  0  0  0  0  0  0  0  0  0  0  0
   -5.9745   -4.5100   -6.5560 C   0  0  0  0  0  0  0  0  0  0  0  0
   -6.6810   -5.2035   -7.5719 O   0  0  0  0  0  0  0  0  0  0  0  0
    5.0097   -1.2594   -1.0148 O   0  0  0  0  0  0  0  0  0  0  0  0
    4.8135   -0.8826    0.3923 O   0  0  0  0  0  0  0  0  0  0  0  0
    2.4388    0.6425    3.6601 H   0  0  0  0  0  0  0  0  0  0  0  0
    1.6642    0.6641    2.0644 H   0  0  0  0  0  0  0  0  0  0  0  0
    3.4318    0.6650    2.1934 H   0  0  0  0  0  0  0  0  0  0  0  0
    1.5907   -1.6006    3.1172 H   0  0  0  0  0  0  0  0  0  0  0  0
    3.3535   -1.6371    3.2037 H   0  0  0  0  0  0  0  0  0  0  0  0
    1.6228   -1.4756    0.6826 H   0  0  0  0  0  0  0  0  0  0  0  0
    2.3875   -2.8871    1.2412 H   0  0  0  0  0  0  0  0  0  0  0  0
    1.9632   -2.5752   -1.5044 H   0  0  0  0  0  0  0  0  0  0  0  0
    3.2354   -3.7262   -1.7448 H   0  0  0  0  0  0  0  0  0  0  0  0
    4.2354   -2.3686   -3.5860 H   0  0  0  0  0  0  0  0  0  0  0  0
    2.9668   -1.1591   -3.3829 H   0  0  0  0  0  0  0  0  0  0  0  0
    2.5591   -4.0539   -4.2631 H   0  0  0  0  0  0  0  0  0  0  0  0
    2.5461   -2.6187   -5.2871 H   0  0  0  0  0  0  0  0  0  0  0  0
    0.5868   -1.7151   -4.0074 H   0  0  0  0  0  0  0  0  0  0  0  0
    0.5536   -3.1807   -3.0240 H   0  0  0  0  0  0  0  0  0  0  0  0
    0.2965   -4.5717   -5.0680 H   0  0  0  0  0  0  0  0  0  0  0  0
    0.3005   -3.1108   -6.0624 H   0  0  0  0  0  0  0  0  0  0  0  0
   -1.7143   -2.2739   -4.8422 H   0  0  0  0  0  0  0  0  0  0  0  0
   -1.7178   -3.7319   -3.8427 H   0  0  0  0  0  0  0  0  0  0  0  0
   -1.9399   -5.1413   -5.9009 H   0  0  0  0  0  0  0  0  0  0  0  0
   -1.9361   -3.6858   -6.9000 H   0  0  0  0  0  0  0  0  0  0  0  0
   -3.9728   -2.8605   -5.7056 H   0  0  0  0  0  0  0  0  0  0  0  0
   -3.9768   -4.3165   -4.7063 H   0  0  0  0  0  0  0  0  0  0  0  0
   -4.2120   -5.7273   -6.7771 H   0  0  0  0  0  0  0  0  0  0  0  0
   -4.2058   -4.2819   -7.7664 H   0  0  0  0  0  0  0  0  0  0  0  0
   -6.2692   -3.4558   -6.5789 H   0  0  0  0  0  0  0  0  0  0  0  0
   -6.2664   -4.9273   -5.5873 H   0  0  0  0  0  0  0  0  0  0  0  0
   -6.4170   -4.8166   -8.4241 H   0  0  0  0  0  0  0  0  0  0  0  0
  1  2  1  0  0  0  0
  1 19  1  0  0  0  0
  1 20  1  0  0  0  0
  1 21  1  0  0  0  0
  2  3  1  0  0  0  0
  2 22  1  0  0  0  0
  2 23  1  0  0  0  0
  3  4  1  0  0  0  0
  3 24  1  0  0  0  0
  3 25  1  0  0  0  0
  4  5  2  0  0  0  0
  4 18  1  0  0  0  0
  5  6  1  0  0  0  0
  5 17  1  0  0  0  0
  6  7  1  0  0  0  0
  6 26  1  0  0  0  0
  6 27  1  0  0  0  0
  7  8  1  0  0  0  0
  7 28  1  0  0  0  0
  7 29  1  0  0  0  0
  8  9  1  0  0  0  0
  8 30  1  0  0  0  0
  8 31  1  0  0  0  0
  9 10  1  0  0  0  0
  9 32  1  0  0  0  0
  9 33  1  0  0  0  0
 10 11  1  0  0  0  0
 10 34  1  0  0  0  0
 10 35  1  0  0  0  0
 11 12  1  0  0  0  0
 11 36  1  0  0  0  0
 11 37  1  0  0  0  0
 12 13  1  0  0  0  0
 12 38  1  0  0  0  0
 12 39  1  0  0  0  0
 13 14  1  0  0  0  0
 13 40  1  0  0  0  0
 13 41  1  0  0  0  0
 14 15  1  0  0  0  0
 14 42  1  0  0  0  0
 14 43  1  0  0  0  0
 15 16  1  0  0  0  0
 15 44  1  0  0  0  0
 15 45  1  0  0  0  0
 16 46  1  0  0  0  0
 17 18  1  0  0  0  0
M  END
$$$$
