
 OpenBabel04232216433D

 50 53  0  0  0  0  0  0  0  0999 V2000
    2.4769   -0.0588   -0.8043 C   0  0  0  0  0  0  0  0  0  0  0  0
    1.4416   -0.7258    0.0623 C   0  0  0  0  0  0  0  0  0  0  0  0
    0.3593   -1.3161   -0.8775 C   0  0  0  0  0  0  0  0  0  0  0  0
   -1.0705   -0.7659   -0.9552 C   0  0  0  0  0  0  0  0  0  0  0  0
   -1.9867   -0.6535   -1.9714 C   0  0  0  0  0  0  0  0  0  0  0  0
   -3.2796    0.1635   -1.9103 C   0  0  0  0  0  0  0  0  0  0  0  0
   -1.7592   -1.3277   -3.2879 C   0  0  0  0  0  0  0  0  0  0  0  0
   -1.6471   -2.9201   -3.2888 C   0  0  0  0  0  0  0  0  0  0  0  0
   -1.2688   -3.3631   -1.8806 C   0  0  0  0  0  0  0  0  0  0  0  0
   -0.8098   -4.3578   -0.8375 C   0  0  0  0  0  0  0  0  0  0  0  0
   -1.0005   -3.8265    0.6610 C   0  0  0  0  0  0  0  0  0  0  0  0
   -1.2486   -2.7066    1.4103 C   0  0  0  0  0  0  0  0  0  0  0  0
   -1.4154   -1.1907    1.3686 C   0  0  0  0  0  0  0  0  0  0  0  0
   -1.2779   -0.2534    0.3701 C   0  0  0  0  0  0  0  0  0  0  0  0
   -1.3386   -0.4915   -4.2833 C   0  0  0  0  0  0  0  0  0  0  0  0
    0.1582   -0.4724   -4.2985 C   0  0  0  0  0  0  0  0  0  0  0  0
    0.7818    0.6285   -3.9836 N   0  0  0  0  0  0  0  0  0  0  0  0
    1.8429    0.3831   -3.1426 C   0  0  0  0  0  0  0  0  0  0  0  0
    1.7639    0.7814   -1.8462 C   0  0  0  0  0  0  0  0  0  0  0  0
    0.7994    1.8337   -1.4625 C   0  0  0  0  0  0  0  0  0  0  0  0
   -0.2272    2.0093   -0.6026 C   0  0  0  0  0  0  0  0  0  0  0  0
   -0.6622    3.4021   -0.4189 C   0  0  0  0  0  0  0  0  0  0  0  0
   -1.0221    3.4685    0.8858 C   0  0  0  0  0  0  0  0  0  0  0  0
   -1.2773    2.1014    1.3855 C   0  0  0  0  0  0  0  0  0  0  0  0
   -0.9413    1.1877    0.4530 C   0  0  0  0  0  0  0  0  0  0  0  0
    3.0245   -0.8894   -1.2784 H   0  0  0  0  0  0  0  0  0  0  0  0
    3.1998    0.4951   -0.2030 H   0  0  0  0  0  0  0  0  0  0  0  0
    1.1049   -0.0298    0.8342 H   0  0  0  0  0  0  0  0  0  0  0  0
    1.8795   -1.5480    0.6442 H   0  0  0  0  0  0  0  0  0  0  0  0
    0.3479   -2.3151   -0.4738 H   0  0  0  0  0  0  0  0  0  0  0  0
    0.7363   -1.4292   -1.8873 H   0  0  0  0  0  0  0  0  0  0  0  0
   -3.5411    0.5118   -0.9063 H   0  0  0  0  0  0  0  0  0  0  0  0
   -4.1428   -0.3956   -2.2911 H   0  0  0  0  0  0  0  0  0  0  0  0
   -3.1801    1.0651   -2.5304 H   0  0  0  0  0  0  0  0  0  0  0  0
   -0.9081   -3.2296   -4.0396 H   0  0  0  0  0  0  0  0  0  0  0  0
   -2.6122   -3.3453   -3.5737 H   0  0  0  0  0  0  0  0  0  0  0  0
   -2.0376   -2.8729   -1.2973 H   0  0  0  0  0  0  0  0  0  0  0  0
   -0.2691   -2.9952   -2.0542 H   0  0  0  0  0  0  0  0  0  0  0  0
    0.2787   -4.5483   -0.9403 H   0  0  0  0  0  0  0  0  0  0  0  0
   -1.2843   -5.3314   -0.9564 H   0  0  0  0  0  0  0  0  0  0  0  0
   -0.7880   -4.6988    1.2949 H   0  0  0  0  0  0  0  0  0  0  0  0
   -1.2224   -2.9531    2.4848 H   0  0  0  0  0  0  0  0  0  0  0  0
   -1.4517   -0.7798    2.3831 H   0  0  0  0  0  0  0  0  0  0  0  0
   -1.6387    0.5589   -4.2245 H   0  0  0  0  0  0  0  0  0  0  0  0
    0.6398   -1.4662   -4.2681 H   0  0  0  0  0  0  0  0  0  0  0  0
    2.5295   -0.4160   -3.4274 H   0  0  0  0  0  0  0  0  0  0  0  0
    1.0294    2.7028   -2.0944 H   0  0  0  0  0  0  0  0  0  0  0  0
   -1.4128    3.6472   -1.1795 H   0  0  0  0  0  0  0  0  0  0  0  0
   -0.4013    4.0822    1.5274 H   0  0  0  0  0  0  0  0  0  0  0  0
   -1.7860    1.9483    2.3211 H   0  0  0  0  0  0  0  0  0  0  0  0
  1  2  1  0  0  0  0
  1 19  1  0  0  0  0
  1 26  1  0  0  0  0
  1 27  1  0  0  0  0
  2  3  1  0  0  0  0
  2 28  1  0  0  0  0
  2 29  1  0  0  0  0
  3  4  1  0  0  0  0
  3 30  1  0  0  0  0
  3 31  1  0  0  0  0
  4  5  2  3  0  0  0
  4 14  1  0  0  0  0
  5  6  1  0  0  0  0
  5  7  1  0  0  0  0
  6 32  1  0  0  0  0
  6 33  1  0  0  0  0
  6 34  1  0  0  0  0
  7  8  1  0  0  0  0
  7 15  2  3  0  0  0
  8  9  1  0  0  0  0
  8 35  1  0  0  0  0
  8 36  1  0  0  0  0
  9 10  1  0  0  0  0
  9 37  1  0  0  0  0
  9 38  1  0  0  0  0
 10 11  1  0  0  0  0
 10 39  1  0  0  0  0
 10 40  1  0  0  0  0
 11 12  2  3  0  0  0
 11 41  1  0  0  0  0
 12 13  1  0  0  0  0
 12 42  1  0  0  0  0
 13 14  2  3  0  0  0
 13 43  1  0  0  0  0
 14 25  1  0  0  0  0
 15 16  1  0  0  0  0
 15 44  1  0  0  0  0
 16 17  2  3  0  0  0
 16 45  1  0  0  0  0
 17 18  1  0  0  0  0
 18 19  2  3  0  0  0
 18 46  1  0  0  0  0
 19 20  1  0  0  0  0
 20 21  2  3  0  0  0
 20 47  1  0  0  0  0
 21 22  1  0  0  0  0
 21 25  1  0  0  0  0
 22 23  2  0  0  0  0
 22 48  1  0  0  0  0
 23 24  1  0  0  0  0
 23 49  1  0  0  0  0
 24 25  2  0  0  0  0
 24 50  1  0  0  0  0
M  END
$$$$
