
 OpenBabel04232217003D

221220  0  0  0  0  0  0  0  0999 V2000
    0.8663   -0.0112   -0.0687 O   0  0  0  0  0  0  0  0  0  0  0  0
    2.2809   -0.0502   -0.0518 C   0  0  0  0  0  0  0  0  0  0  0  0
    2.8011    1.2465   -0.6264 C   0  0  0  0  0  0  0  0  0  0  0  0
    4.3236    1.2593   -0.6282 C   0  0  0  0  0  0  0  0  0  0  0  0
    4.8404    2.5770   -1.2138 C   0  0  0  0  0  0  0  0  0  0  0  0
    6.3610    2.5858   -1.2169 C   0  0  0  0  0  0  0  0  0  0  0  0
    6.8767    3.8925   -1.7946 C   0  0  0  0  0  0  0  0  0  0  0  0
    8.3964    3.8981   -1.7961 C   0  0  0  0  0  0  0  0  0  0  0  0
    8.9079    5.2059   -2.3719 C   0  0  0  0  0  0  0  0  0  0  0  0
   10.4252    5.2126   -2.3738 C   0  0  0  0  0  0  0  0  0  0  0  0
   10.9358    6.5190   -2.9528 C   0  0  0  0  0  0  0  0  0  0  0  0
   12.4528    6.5240   -2.9552 C   0  0  0  0  0  0  0  0  0  0  0  0
   12.9633    7.8306   -3.5325 C   0  0  0  0  0  0  0  0  0  0  0  0
   14.4802    7.8361   -3.5325 C   0  0  0  0  0  0  0  0  0  0  0  0
   14.9904    9.1427   -4.1096 C   0  0  0  0  0  0  0  0  0  0  0  0
   16.5071    9.1487   -4.1079 C   0  0  0  0  0  0  0  0  0  0  0  0
   17.0172   10.4545   -4.6868 C   0  0  0  0  0  0  0  0  0  0  0  0
   18.5338   10.4598   -4.6869 C   0  0  0  0  0  0  0  0  0  0  0  0
   19.0439   11.7646   -5.2679 C   0  0  0  0  0  0  0  0  0  0  0  0
   20.5605   11.7690   -5.2697 C   0  0  0  0  0  0  0  0  0  0  0  0
   21.0706   13.0731   -5.8523 C   0  0  0  0  0  0  0  0  0  0  0  0
   22.5872   13.0782   -5.8526 C   0  0  0  0  0  0  0  0  0  0  0  0
   23.0973   14.3830   -6.4335 C   0  0  0  0  0  0  0  0  0  0  0  0
   24.6139   14.3875   -6.4352 C   0  0  0  0  0  0  0  0  0  0  0  0
   25.1239   15.6924   -7.0161 C   0  0  0  0  0  0  0  0  0  0  0  0
   26.6405   15.6975   -7.0163 C   0  0  0  0  0  0  0  0  0  0  0  0
   27.1506   17.0023   -7.5971 C   0  0  0  0  0  0  0  0  0  0  0  0
   28.6672   17.0076   -7.5971 C   0  0  0  0  0  0  0  0  0  0  0  0
   29.1772   18.3125   -8.1779 C   0  0  0  0  0  0  0  0  0  0  0  0
   30.6938   18.3176   -8.1780 C   0  0  0  0  0  0  0  0  0  0  0  0
   31.2039   19.6225   -8.7588 C   0  0  0  0  0  0  0  0  0  0  0  0
   32.7205   19.6277   -8.7590 C   0  0  0  0  0  0  0  0  0  0  0  0
   33.2306   20.9326   -9.3398 C   0  0  0  0  0  0  0  0  0  0  0  0
   34.7472   20.9369   -9.3418 C   0  0  0  0  0  0  0  0  0  0  0  0
   35.2572   22.2418   -9.9226 C   0  0  0  0  0  0  0  0  0  0  0  0
   36.7738   22.2454   -9.9261 C   0  0  0  0  0  0  0  0  0  0  0  0
   37.2839   23.5510  -10.5053 C   0  0  0  0  0  0  0  0  0  0  0  0
   38.8005   23.5552  -10.5073 C   0  0  0  0  0  0  0  0  0  0  0  0
   39.3105   24.8602  -11.0881 C   0  0  0  0  0  0  0  0  0  0  0  0
   40.8273   24.8636  -11.0916 C   0  0  0  0  0  0  0  0  0  0  0  0
   41.3373   26.1693  -11.6708 C   0  0  0  0  0  0  0  0  0  0  0  0
   42.8539   26.1730  -11.6741 C   0  0  0  0  0  0  0  0  0  0  0  0
   43.3639   27.4786  -12.2535 C   0  0  0  0  0  0  0  0  0  0  0  0
   44.8805   27.4822  -12.2573 C   0  0  0  0  0  0  0  0  0  0  0  0
   45.3905   28.7879  -12.8363 C   0  0  0  0  0  0  0  0  0  0  0  0
   46.9071   28.7915  -12.8401 C   0  0  0  0  0  0  0  0  0  0  0  0
   47.4171   30.0972  -13.4189 C   0  0  0  0  0  0  0  0  0  0  0  0
   48.9337   30.1008  -13.4228 C   0  0  0  0  0  0  0  0  0  0  0  0
   49.4438   31.4066  -14.0016 C   0  0  0  0  0  0  0  0  0  0  0  0
   50.9604   31.4092  -14.0071 C   0  0  0  0  0  0  0  0  0  0  0  0
   51.4706   32.7147  -14.5862 C   0  0  0  0  0  0  0  0  0  0  0  0
   52.9882   32.7165  -14.5936 C   0  0  0  0  0  0  0  0  0  0  0  0
   53.4979   34.0222  -15.1745 C   0  0  0  0  0  0  0  0  0  0  0  0
   55.0131   34.0225  -15.1874 C   0  0  0  0  0  0  0  0  0  0  0  0
   55.5241   35.3289  -15.7649 C   0  0  0  0  0  0  0  0  0  0  0  0
   57.0385   35.3320  -15.7722 C   0  0  0  0  0  0  0  0  0  0  0  0
   57.5494   36.6361  -16.3510 C   0  0  0  0  0  0  0  0  0  0  0  0
   59.0659   36.6376  -16.3527 C   0  0  0  0  0  0  0  0  0  0  0  0
   59.5757   37.9430  -16.9294 C   0  0  0  0  0  0  0  0  0  0  0  0
   61.0922   37.9416  -16.9409 C   0  0  0  0  0  0  0  0  0  0  0  0
   61.5964   39.2441  -17.5235 C   0  0  0  0  0  0  0  0  0  0  0  0
   63.1101   39.2497  -17.5331 C   0  0  0  0  0  0  0  0  0  0  0  0
   63.6134   40.5549  -18.1115 C   0  0  0  0  0  0  0  0  0  0  0  0
   65.1249   40.5517  -18.1187 C   0  0  0  0  0  0  0  0  0  0  0  0
   65.6269   41.8530  -18.6981 C   0  0  0  0  0  0  0  0  0  0  0  0
   67.1331   41.8409  -18.6993 C   0  0  0  0  0  0  0  0  0  0  0  0
   67.6325   43.1386  -19.2769 C   0  0  0  0  0  0  0  0  0  0  0  0
   69.1346   43.1081  -19.2700 C   0  0  0  0  0  0  0  0  0  0  0  0
   69.6260   44.4050  -19.8477 C   0  0  0  0  0  0  0  0  0  0  0  0
   71.1190   44.3808  -19.8430 C   0  0  0  0  0  0  0  0  0  0  0  0
   71.4712   45.6222  -20.4010 O   0  0  0  0  0  0  0  0  0  0  0  0
   72.8906   45.5874  -20.3790 O   0  0  0  0  0  0  0  0  0  0  0  0
   73.3666   46.8237  -20.9094 O   0  0  0  0  0  0  0  0  0  0  0  0
   74.7801   46.7912  -20.9349 O   0  0  0  0  0  0  0  0  0  0  0  0
   75.2451   48.0164  -21.4907 O   0  0  0  0  0  0  0  0  0  0  0  0
   76.6640   48.0436  -21.4351 O   0  0  0  0  0  0  0  0  0  0  0  0
   77.1214   49.2775  -21.9905 O   0  0  0  0  0  0  0  0  0  0  0  0
   78.5327   49.2086  -22.2042 O   0  0  0  0  0  0  0  0  0  0  0  0
   79.0147   50.4959  -22.6345 O   0  0  0  0  0  0  0  0  0  0  0  0
   80.4497   50.5335  -22.5478 O   0  0  0  0  0  0  0  0  0  0  0  0
   80.8735   50.4208  -21.1672 O   0  0  0  0  0  0  0  0  0  0  0  0
    0.5447   -0.8642    0.3092 H   0  0  0  0  0  0  0  0  0  0  0  0
    2.6145   -0.9090   -0.6453 H   0  0  0  0  0  0  0  0  0  0  0  0
    2.6141   -0.1866    0.9858 H   0  0  0  0  0  0  0  0  0  0  0  0
    2.4139    2.0912   -0.0431 H   0  0  0  0  0  0  0  0  0  0  0  0
    2.4168    1.3810   -1.6422 H   0  0  0  0  0  0  0  0  0  0  0  0
    4.7054    0.4265   -1.2254 H   0  0  0  0  0  0  0  0  0  0  0  0
    4.7036    1.1429    0.3884 H   0  0  0  0  0  0  0  0  0  0  0  0
    4.4658    3.4211   -0.6232 H   0  0  0  0  0  0  0  0  0  0  0  0
    4.4671    2.7051   -2.2369 H   0  0  0  0  0  0  0  0  0  0  0  0
    6.7389    1.7431   -1.8091 H   0  0  0  0  0  0  0  0  0  0  0  0
    6.7374    2.4580   -0.1942 H   0  0  0  0  0  0  0  0  0  0  0  0
    6.5036    4.7365   -1.2012 H   0  0  0  0  0  0  0  0  0  0  0  0
    6.5033    4.0235   -2.8172 H   0  0  0  0  0  0  0  0  0  0  0  0
    8.7732    3.0558   -2.3896 H   0  0  0  0  0  0  0  0  0  0  0  0
    8.7721    3.7683   -0.7739 H   0  0  0  0  0  0  0  0  0  0  0  0
    8.5315    6.0481   -1.7788 H   0  0  0  0  0  0  0  0  0  0  0  0
    8.5325    5.3356   -3.3945 H   0  0  0  0  0  0  0  0  0  0  0  0
   10.8024    4.3695   -2.9654 H   0  0  0  0  0  0  0  0  0  0  0  0
   10.8009    5.0854   -1.3510 H   0  0  0  0  0  0  0  0  0  0  0  0
   10.5602    7.3627   -2.3610 H   0  0  0  0  0  0  0  0  0  0  0  0
   10.5602    6.6471   -3.9755 H   0  0  0  0  0  0  0  0  0  0  0  0
   12.8289    5.6812   -3.5483 H   0  0  0  0  0  0  0  0  0  0  0  0
   12.8290    6.3948   -1.9329 H   0  0  0  0  0  0  0  0  0  0  0  0
   12.5865    8.6737   -2.9404 H   0  0  0  0  0  0  0  0  0  0  0  0
   12.5888    7.9594   -4.5555 H   0  0  0  0  0  0  0  0  0  0  0  0
   14.8573    6.9931   -4.1246 H   0  0  0  0  0  0  0  0  0  0  0  0
   14.8547    7.7075   -2.5095 H   0  0  0  0  0  0  0  0  0  0  0  0
   14.6124    9.9859   -3.5183 H   0  0  0  0  0  0  0  0  0  0  0  0
   14.6169    9.2706   -5.1331 H   0  0  0  0  0  0  0  0  0  0  0  0
   16.8852    8.3049   -4.6982 H   0  0  0  0  0  0  0  0  0  0  0  0
   16.8807    9.0222   -3.0843 H   0  0  0  0  0  0  0  0  0  0  0  0
   16.6401   11.2984   -4.0960 H   0  0  0  0  0  0  0  0  0  0  0  0
   16.6427   10.5817   -5.7101 H   0  0  0  0  0  0  0  0  0  0  0  0
   18.9108    9.6151   -5.2767 H   0  0  0  0  0  0  0  0  0  0  0  0
   18.9085   10.3340   -3.6636 H   0  0  0  0  0  0  0  0  0  0  0  0
   18.6680   12.6093   -4.6775 H   0  0  0  0  0  0  0  0  0  0  0  0
   18.6683   11.8909   -6.2908 H   0  0  0  0  0  0  0  0  0  0  0  0
   20.9365   10.9237   -5.8591 H   0  0  0  0  0  0  0  0  0  0  0  0
   20.9362   11.6440   -4.2466 H   0  0  0  0  0  0  0  0  0  0  0  0
   20.6937   13.9186   -5.2637 H   0  0  0  0  0  0  0  0  0  0  0  0
   20.6959   13.1975   -6.8758 H   0  0  0  0  0  0  0  0  0  0  0  0
   22.9640   12.2334   -6.4423 H   0  0  0  0  0  0  0  0  0  0  0  0
   22.9620   12.9526   -4.8293 H   0  0  0  0  0  0  0  0  0  0  0  0
   22.7213   15.2277   -5.8430 H   0  0  0  0  0  0  0  0  0  0  0  0
   22.7216   14.5094   -7.4564 H   0  0  0  0  0  0  0  0  0  0  0  0
   24.9899   13.5429   -7.0257 H   0  0  0  0  0  0  0  0  0  0  0  0
   24.9895   14.2611   -5.4123 H   0  0  0  0  0  0  0  0  0  0  0  0
   24.7470   16.5371   -6.4263 H   0  0  0  0  0  0  0  0  0  0  0  0
   24.7492   15.8182   -8.0394 H   0  0  0  0  0  0  0  0  0  0  0  0
   27.0174   14.8528   -7.6061 H   0  0  0  0  0  0  0  0  0  0  0  0
   27.0152   15.5717   -5.9929 H   0  0  0  0  0  0  0  0  0  0  0  0
   26.7736   17.8471   -7.0072 H   0  0  0  0  0  0  0  0  0  0  0  0
   26.7759   17.1282   -8.6204 H   0  0  0  0  0  0  0  0  0  0  0  0
   29.0442   16.1629   -8.1869 H   0  0  0  0  0  0  0  0  0  0  0  0
   29.0418   16.8818   -6.5738 H   0  0  0  0  0  0  0  0  0  0  0  0
   28.8002   19.1572   -7.5882 H   0  0  0  0  0  0  0  0  0  0  0  0
   28.8026   18.4382   -9.2013 H   0  0  0  0  0  0  0  0  0  0  0  0
   31.0708   17.4730   -8.7678 H   0  0  0  0  0  0  0  0  0  0  0  0
   31.0685   18.1918   -7.1547 H   0  0  0  0  0  0  0  0  0  0  0  0
   30.8269   20.4672   -8.1690 H   0  0  0  0  0  0  0  0  0  0  0  0
   30.8292   19.7483   -9.7821 H   0  0  0  0  0  0  0  0  0  0  0  0
   33.0974   18.7830   -9.3488 H   0  0  0  0  0  0  0  0  0  0  0  0
   33.0953   19.5019   -7.7357 H   0  0  0  0  0  0  0  0  0  0  0  0
   32.8547   21.7772   -8.7492 H   0  0  0  0  0  0  0  0  0  0  0  0
   32.8548   21.0590  -10.3626 H   0  0  0  0  0  0  0  0  0  0  0  0
   35.1229   20.0923   -9.9324 H   0  0  0  0  0  0  0  0  0  0  0  0
   35.1231   20.8105   -8.3190 H   0  0  0  0  0  0  0  0  0  0  0  0
   34.8823   23.0863   -9.3313 H   0  0  0  0  0  0  0  0  0  0  0  0
   34.8805   22.3688  -10.9451 H   0  0  0  0  0  0  0  0  0  0  0  0
   37.1485   21.4016  -10.5186 H   0  0  0  0  0  0  0  0  0  0  0  0
   37.1506   22.1170   -8.9039 H   0  0  0  0  0  0  0  0  0  0  0  0
   36.9083   24.3949   -9.9136 H   0  0  0  0  0  0  0  0  0  0  0  0
   36.9079   23.6787  -11.5279 H   0  0  0  0  0  0  0  0  0  0  0  0
   39.1763   22.7106  -11.0979 H   0  0  0  0  0  0  0  0  0  0  0  0
   39.1763   23.4288   -9.4845 H   0  0  0  0  0  0  0  0  0  0  0  0
   38.9358   25.7045  -10.4965 H   0  0  0  0  0  0  0  0  0  0  0  0
   38.9336   24.9874  -12.1104 H   0  0  0  0  0  0  0  0  0  0  0  0
   41.2018   24.0199  -11.6843 H   0  0  0  0  0  0  0  0  0  0  0  0
   41.2040   24.7352  -10.0695 H   0  0  0  0  0  0  0  0  0  0  0  0
   40.9626   27.0130  -11.0783 H   0  0  0  0  0  0  0  0  0  0  0  0
   40.9606   26.2978  -12.6930 H   0  0  0  0  0  0  0  0  0  0  0  0
   43.2290   25.3290  -12.2661 H   0  0  0  0  0  0  0  0  0  0  0  0
   43.2306   26.0452  -10.6517 H   0  0  0  0  0  0  0  0  0  0  0  0
   42.9893   28.3224  -11.6610 H   0  0  0  0  0  0  0  0  0  0  0  0
   42.9869   27.6069  -13.2757 H   0  0  0  0  0  0  0  0  0  0  0  0
   45.2552   26.6385  -12.8500 H   0  0  0  0  0  0  0  0  0  0  0  0
   45.2575   27.3537  -11.2352 H   0  0  0  0  0  0  0  0  0  0  0  0
   45.0159   29.6316  -12.2436 H   0  0  0  0  0  0  0  0  0  0  0  0
   45.0135   28.9165  -13.8585 H   0  0  0  0  0  0  0  0  0  0  0  0
   47.2817   27.9478  -13.4328 H   0  0  0  0  0  0  0  0  0  0  0  0
   47.2841   28.6628  -11.8180 H   0  0  0  0  0  0  0  0  0  0  0  0
   47.0425   30.9409  -12.8262 H   0  0  0  0  0  0  0  0  0  0  0  0
   47.0401   30.2259  -14.4411 H   0  0  0  0  0  0  0  0  0  0  0  0
   49.3083   29.2571  -14.0156 H   0  0  0  0  0  0  0  0  0  0  0  0
   49.3108   29.9721  -12.4007 H   0  0  0  0  0  0  0  0  0  0  0  0
   49.0702   32.2502  -13.4082 H   0  0  0  0  0  0  0  0  0  0  0  0
   49.0658   31.5358  -15.0234 H   0  0  0  0  0  0  0  0  0  0  0  0
   51.3338   30.5656  -14.6006 H   0  0  0  0  0  0  0  0  0  0  0  0
   51.3386   31.2800  -12.9855 H   0  0  0  0  0  0  0  0  0  0  0  0
   51.0984   33.5585  -13.9920 H   0  0  0  0  0  0  0  0  0  0  0  0
   51.0912   32.8446  -15.6073 H   0  0  0  0  0  0  0  0  0  0  0  0
   53.3592   31.8719  -15.1874 H   0  0  0  0  0  0  0  0  0  0  0  0
   53.3668   32.5873  -13.5729 H   0  0  0  0  0  0  0  0  0  0  0  0
   53.1266   34.8652  -14.5795 H   0  0  0  0  0  0  0  0  0  0  0  0
   53.1164   34.1511  -16.1948 H   0  0  0  0  0  0  0  0  0  0  0  0
   55.3858   33.1802  -15.7795 H   0  0  0  0  0  0  0  0  0  0  0  0
   55.3937   33.8942  -14.1659 H   0  0  0  0  0  0  0  0  0  0  0  0
   55.1506   36.1732  -15.1699 H   0  0  0  0  0  0  0  0  0  0  0  0
   55.1425   35.4598  -16.7873 H   0  0  0  0  0  0  0  0  0  0  0  0
   57.4123   34.4878  -16.3657 H   0  0  0  0  0  0  0  0  0  0  0  0
   57.4183   35.2027  -14.7507 H   0  0  0  0  0  0  0  0  0  0  0  0
   57.1754   37.4818  -15.7578 H   0  0  0  0  0  0  0  0  0  0  0  0
   57.1735   36.7667  -17.3731 H   0  0  0  0  0  0  0  0  0  0  0  0
   59.4392   35.7949  -16.9486 H   0  0  0  0  0  0  0  0  0  0  0  0
   59.4427   36.5047  -15.3305 H   0  0  0  0  0  0  0  0  0  0  0  0
   59.2069   38.7873  -16.3331 H   0  0  0  0  0  0  0  0  0  0  0  0
   59.1971   38.0740  -17.9497 H   0  0  0  0  0  0  0  0  0  0  0  0
   61.4612   37.0976  -17.5373 H   0  0  0  0  0  0  0  0  0  0  0  0
   61.4776   37.8118  -15.9221 H   0  0  0  0  0  0  0  0  0  0  0  0
   61.2253   40.0912  -16.9320 H   0  0  0  0  0  0  0  0  0  0  0  0
   61.2172   39.3730  -18.5452 H   0  0  0  0  0  0  0  0  0  0  0  0
   63.4857   38.4049  -18.1268 H   0  0  0  0  0  0  0  0  0  0  0  0
   63.4922   39.1202  -16.5116 H   0  0  0  0  0  0  0  0  0  0  0  0
   63.2447   41.3972  -17.5142 H   0  0  0  0  0  0  0  0  0  0  0  0
   63.2323   40.6886  -19.1309 H   0  0  0  0  0  0  0  0  0  0  0  0
   65.4948   39.7083  -18.7144 H   0  0  0  0  0  0  0  0  0  0  0  0
   65.5048   40.4253  -17.0986 H   0  0  0  0  0  0  0  0  0  0  0  0
   65.2567   42.7022  -18.1051 H   0  0  0  0  0  0  0  0  0  0  0  0
   65.2496   41.9848  -19.7227 H   0  0  0  0  0  0  0  0  0  0  0  0
   67.5081   40.9967  -19.2928 H   0  0  0  0  0  0  0  0  0  0  0  0
   67.5152   41.7128  -17.6778 H   0  0  0  0  0  0  0  0  0  0  0  0
   67.2678   43.9874  -18.6850 H   0  0  0  0  0  0  0  0  0  0  0  0
   67.2606   43.2710  -20.3006 H   0  0  0  0  0  0  0  0  0  0  0  0
   69.5092   42.2669  -19.8657 H   0  0  0  0  0  0  0  0  0  0  0  0
   69.5163   42.9838  -18.2494 H   0  0  0  0  0  0  0  0  0  0  0  0
   69.2623   45.2633  -19.2677 H   0  0  0  0  0  0  0  0  0  0  0  0
   69.2562   44.5515  -20.8710 H   0  0  0  0  0  0  0  0  0  0  0  0
   71.5133   43.5672  -20.4599 H   0  0  0  0  0  0  0  0  0  0  0  0
   71.5188   44.2970  -18.8275 H   0  0  0  0  0  0  0  0  0  0  0  0
   81.8106   50.2743  -21.3727 H   0  0  0  0  0  0  0  0  0  0  0  0
  1  2  1  0  0  0  0
  1 82  1  0  0  0  0
  2  3  1  0  0  0  0
  2 83  1  0  0  0  0
  2 84  1  0  0  0  0
  3  4  1  0  0  0  0
  3 85  1  0  0  0  0
  3 86  1  0  0  0  0
  4  5  1  0  0  0  0
  4 87  1  0  0  0  0
  4 88  1  0  0  0  0
  5  6  1  0  0  0  0
  5 89  1  0  0  0  0
  5 90  1  0  0  0  0
  6  7  1  0  0  0  0
  6 91  1  0  0  0  0
  6 92  1  0  0  0  0
  7  8  1  0  0  0  0
  7 93  1  0  0  0  0
  7 94  1  0  0  0  0
  8  9  1  0  0  0  0
  8 95  1  0  0  0  0
  8 96  1  0  0  0  0
  9 10  1  0  0  0  0
  9 97  1  0  0  0  0
  9 98  1  0  0  0  0
 10 11  1  0  0  0  0
 10 99  1  0  0  0  0
 10100  1  0  0  0  0
 11 12  1  0  0  0  0
 11101  1  0  0  0  0
 11102  1  0  0  0  0
 12 13  1  0  0  0  0
 12103  1  0  0  0  0
 12104  1  0  0  0  0
 13 14  1  0  0  0  0
 13105  1  0  0  0  0
 13106  1  0  0  0  0
 14 15  1  0  0  0  0
 14107  1  0  0  0  0
 14108  1  0  0  0  0
 15 16  1  0  0  0  0
 15109  1  0  0  0  0
 15110  1  0  0  0  0
 16 17  1  0  0  0  0
 16111  1  0  0  0  0
 16112  1  0  0  0  0
 17 18  1  0  0  0  0
 17113  1  0  0  0  0
 17114  1  0  0  0  0
 18 19  1  0  0  0  0
 18115  1  0  0  0  0
 18116  1  0  0  0  0
 19 20  1  0  0  0  0
 19117  1  0  0  0  0
 19118  1  0  0  0  0
 20 21  1  0  0  0  0
 20119  1  0  0  0  0
 20120  1  0  0  0  0
 21 22  1  0  0  0  0
 21121  1  0  0  0  0
 21122  1  0  0  0  0
 22 23  1  0  0  0  0
 22123  1  0  0  0  0
 22124  1  0  0  0  0
 23 24  1  0  0  0  0
 23125  1  0  0  0  0
 23126  1  0  0  0  0
 24 25  1  0  0  0  0
 24127  1  0  0  0  0
 24128  1  0  0  0  0
 25 26  1  0  0  0  0
 25129  1  0  0  0  0
 25130  1  0  0  0  0
 26 27  1  0  0  0  0
 26131  1  0  0  0  0
 26132  1  0  0  0  0
 27 28  1  0  0  0  0
 27133  1  0  0  0  0
 27134  1  0  0  0  0
 28 29  1  0  0  0  0
 28135  1  0  0  0  0
 28136  1  0  0  0  0
 29 30  1  0  0  0  0
 29137  1  0  0  0  0
 29138  1  0  0  0  0
 30 31  1  0  0  0  0
 30139  1  0  0  0  0
 30140  1  0  0  0  0
 31 32  1  0  0  0  0
 31141  1  0  0  0  0
 31142  1  0  0  0  0
 32 33  1  0  0  0  0
 32143  1  0  0  0  0
 32144  1  0  0  0  0
 33 34  1  0  0  0  0
 33145  1  0  0  0  0
 33146  1  0  0  0  0
 34 35  1  0  0  0  0
 34147  1  0  0  0  0
 34148  1  0  0  0  0
 35 36  1  0  0  0  0
 35149  1  0  0  0  0
 35150  1  0  0  0  0
 36 37  1  0  0  0  0
 36151  1  0  0  0  0
 36152  1  0  0  0  0
 37 38  1  0  0  0  0
 37153  1  0  0  0  0
 37154  1  0  0  0  0
 38 39  1  0  0  0  0
 38155  1  0  0  0  0
 38156  1  0  0  0  0
 39 40  1  0  0  0  0
 39157  1  0  0  0  0
 39158  1  0  0  0  0
 40 41  1  0  0  0  0
 40159  1  0  0  0  0
 40160  1  0  0  0  0
 41 42  1  0  0  0  0
 41161  1  0  0  0  0
 41162  1  0  0  0  0
 42 43  1  0  0  0  0
 42163  1  0  0  0  0
 42164  1  0  0  0  0
 43 44  1  0  0  0  0
 43165  1  0  0  0  0
 43166  1  0  0  0  0
 44 45  1  0  0  0  0
 44167  1  0  0  0  0
 44168  1  0  0  0  0
 45 46  1  0  0  0  0
 45169  1  0  0  0  0
 45170  1  0  0  0  0
 46 47  1  0  0  0  0
 46171  1  0  0  0  0
 46172  1  0  0  0  0
 47 48  1  0  0  0  0
 47173  1  0  0  0  0
 47174  1  0  0  0  0
 48 49  1  0  0  0  0
 48175  1  0  0  0  0
 48176  1  0  0  0  0
 49 50  1  0  0  0  0
 49177  1  0  0  0  0
 49178  1  0  0  0  0
 50 51  1  0  0  0  0
 50179  1  0  0  0  0
 50180  1  0  0  0  0
 51 52  1  0  0  0  0
 51181  1  0  0  0  0
 51182  1  0  0  0  0
 52 53  1  0  0  0  0
 52183  1  0  0  0  0
 52184  1  0  0  0  0
 53 54  1  0  0  0  0
 53185  1  0  0  0  0
 53186  1  0  0  0  0
 54 55  1  0  0  0  0
 54187  1  0  0  0  0
 54188  1  0  0  0  0
 55 56  1  0  0  0  0
 55189  1  0  0  0  0
 55190  1  0  0  0  0
 56 57  1  0  0  0  0
 56191  1  0  0  0  0
 56192  1  0  0  0  0
 57 58  1  0  0  0  0
 57193  1  0  0  0  0
 57194  1  0  0  0  0
 58 59  1  0  0  0  0
 58195  1  0  0  0  0
 58196  1  0  0  0  0
 59 60  1  0  0  0  0
 59197  1  0  0  0  0
 59198  1  0  0  0  0
 60 61  1  0  0  0  0
 60199  1  0  0  0  0
 60200  1  0  0  0  0
 61 62  1  0  0  0  0
 61201  1  0  0  0  0
 61202  1  0  0  0  0
 62 63  1  0  0  0  0
 62203  1  0  0  0  0
 62204  1  0  0  0  0
 63 64  1  0  0  0  0
 63205  1  0  0  0  0
 63206  1  0  0  0  0
 64 65  1  0  0  0  0
 64207  1  0  0  0  0
 64208  1  0  0  0  0
 65 66  1  0  0  0  0
 65209  1  0  0  0  0
 65210  1  0  0  0  0
 66 67  1  0  0  0  0
 66211  1  0  0  0  0
 66212  1  0  0  0  0
 67 68  1  0  0  0  0
 67213  1  0  0  0  0
 67214  1  0  0  0  0
 68 69  1  0  0  0  0
 68215  1  0  0  0  0
 68216  1  0  0  0  0
 69 70  1  0  0  0  0
 69217  1  0  0  0  0
 69218  1  0  0  0  0
 70 71  1  0  0  0  0
 70219  1  0  0  0  0
 70220  1  0  0  0  0
 71 72  1  0  0  0  0
 72 73  1  0  0  0  0
 73 74  1  0  0  0  0
 74 75  1  0  0  0  0
 75 76  1  0  0  0  0
 76 77  1  0  0  0  0
 77 78  1  0  0  0  0
 78 79  1  0  0  0  0
 79 80  1  0  0  0  0
 80 81  1  0  0  0  0
 81221  1  0  0  0  0
M  END
$$$$
