
 OpenBabel04232216523D

 58 59  0  0  1  0  0  0  0  0999 V2000
    4.7252    4.3215    5.0510 C   0  0  0  0  0  0  0  0  0  0  0  0
    5.6518    3.1187    4.9579 C   0  0  0  0  0  0  0  0  0  0  0  0
    5.4328    2.3400    3.6555 C   0  0  0  0  0  0  0  0  0  0  0  0
    6.3632    1.1168    3.4915 C   0  0  3  0  0  0  0  0  0  0  0  0
    6.1335    0.0871    4.5626 C   0  0  0  0  0  0  0  0  0  0  0  0
    5.7819   -1.1938    4.3652 C   0  0  0  0  0  0  0  0  0  0  0  0
    5.5116   -2.1195    5.5184 C   0  0  0  0  0  0  0  0  0  0  0  0
    5.6081   -1.7847    2.9890 C   0  0  0  0  0  0  0  0  0  0  0  0
    5.8912   -0.8477    1.7942 C   0  0  3  0  0  0  0  0  0  0  0  0
    7.0222   -1.3085    1.0124 N   0  0  0  0  0  0  0  0  0  0  0  0
    6.8849   -2.1814   -0.0395 C   0  0  0  0  0  0  0  0  0  0  0  0
    5.8095   -2.6011   -0.4496 O   0  0  0  0  0  0  0  0  0  0  0  0
    8.1718   -2.5712   -0.6748 C   0  0  0  0  0  0  0  0  0  0  0  0
    9.4678   -2.5825   -0.0405 C   0  0  0  0  0  0  0  0  0  0  0  0
   10.3816   -3.0543   -0.8995 C   0  0  0  0  0  0  0  0  0  0  0  0
   11.8224   -3.3041   -0.6103 C   0  0  0  0  0  0  0  0  0  0  0  0
   12.7546   -2.4805   -1.4948 C   0  0  0  0  0  0  0  0  0  0  0  0
   14.2143   -2.7333   -1.1163 C   0  0  0  0  0  0  0  0  0  0  0  0
   15.1570   -1.9329   -2.0106 C   0  0  0  0  0  0  0  0  0  0  0  0
   16.6185   -2.1858   -1.6481 C   0  0  0  0  0  0  0  0  0  0  0  0
   17.5482   -1.3877   -2.5470 C   0  0  0  0  0  0  0  0  0  0  0  0
    9.7198   -3.3893   -2.2097 C   0  0  0  0  0  0  0  0  0  0  0  0
    8.2857   -3.0465   -1.9261 C   0  0  0  0  0  0  0  0  0  0  0  0
    6.1998    0.5772    2.1051 C   0  0  0  0  0  3  0  0  0  0  0  0
    4.9048    4.8636    5.9847 H   0  0  0  0  0  0  0  0  0  0  0  0
    3.6764    4.0074    5.0387 H   0  0  0  0  0  0  0  0  0  0  0  0
    4.8886    5.0124    4.2184 H   0  0  0  0  0  0  0  0  0  0  0  0
    5.4665    2.4808    5.8276 H   0  0  0  0  0  0  0  0  0  0  0  0
    6.6924    3.4579    5.0153 H   0  0  0  0  0  0  0  0  0  0  0  0
    5.5934    3.0302    2.8154 H   0  0  0  0  0  0  0  0  0  0  0  0
    4.3832    2.0201    3.5960 H   0  0  0  0  0  0  0  0  0  0  0  0
    7.4028    1.4575    3.5841 H   0  0  0  0  0  0  0  0  0  0  0  0
    6.2665    0.4308    5.5864 H   0  0  0  0  0  0  0  0  0  0  0  0
    5.6509   -1.6251    6.4862 H   0  0  0  0  0  0  0  0  0  0  0  0
    6.1824   -2.9833    5.4855 H   0  0  0  0  0  0  0  0  0  0  0  0
    4.4772   -2.4774    5.4794 H   0  0  0  0  0  0  0  0  0  0  0  0
    4.5716   -2.1374    2.9062 H   0  0  0  0  0  0  0  0  0  0  0  0
    6.2380   -2.6825    2.9186 H   0  0  0  0  0  0  0  0  0  0  0  0
    5.0083   -0.8633    1.1437 H   0  0  0  0  0  0  0  0  0  0  0  0
    7.9403   -1.0019    1.2944 H   0  0  0  0  0  0  0  0  0  0  0  0
    9.6571   -2.3060    0.9857 H   0  0  0  0  0  0  0  0  0  0  0  0
   12.0298   -4.3720   -0.7363 H   0  0  0  0  0  0  0  0  0  0  0  0
   12.0279   -3.0676    0.4422 H   0  0  0  0  0  0  0  0  0  0  0  0
   12.5268   -1.4121   -1.3903 H   0  0  0  0  0  0  0  0  0  0  0  0
   12.5999   -2.7418   -2.5488 H   0  0  0  0  0  0  0  0  0  0  0  0
   14.4385   -3.8035   -1.2065 H   0  0  0  0  0  0  0  0  0  0  0  0
   14.3771   -2.4568   -0.0670 H   0  0  0  0  0  0  0  0  0  0  0  0
   14.9337   -0.8633   -1.9142 H   0  0  0  0  0  0  0  0  0  0  0  0
   14.9864   -2.2057   -3.0592 H   0  0  0  0  0  0  0  0  0  0  0  0
   16.8488   -3.2531   -1.7454 H   0  0  0  0  0  0  0  0  0  0  0  0
   16.7984   -1.9084   -0.6029 H   0  0  0  0  0  0  0  0  0  0  0  0
   17.4092   -1.6652   -3.5970 H   0  0  0  0  0  0  0  0  0  0  0  0
   18.5917   -1.5773   -2.2792 H   0  0  0  0  0  0  0  0  0  0  0  0
   17.3598   -0.3137   -2.4484 H   0  0  0  0  0  0  0  0  0  0  0  0
    9.8267   -4.4512   -2.4511 H   0  0  0  0  0  0  0  0  0  0  0  0
   10.1119   -2.7791   -3.0292 H   0  0  0  0  0  0  0  0  0  0  0  0
    7.4708   -3.1781   -2.6227 H   0  0  0  0  0  0  0  0  0  0  0  0
    6.3389    1.2550    1.2676 H   0  0  0  0  0  0  0  0  0  0  0  0
  1  2  1  0  0  0  0
  1 25  1  0  0  0  0
  1 26  1  0  0  0  0
  1 27  1  0  0  0  0
  2  3  1  0  0  0  0
  2 28  1  0  0  0  0
  2 29  1  0  0  0  0
  3  4  1  0  0  0  0
  3 30  1  0  0  0  0
  3 31  1  0  0  0  0
  4  5  1  0  0  0  0
  4 24  1  0  0  0  0
  4 32  1  0  0  0  0
  5  6  2  0  0  0  0
  5 33  1  0  0  0  0
  6  7  1  0  0  0  0
  6  8  1  0  0  0  0
  7 34  1  0  0  0  0
  7 35  1  0  0  0  0
  7 36  1  0  0  0  0
  8  9  1  0  0  0  0
  8 37  1  0  0  0  0
  8 38  1  0  0  0  0
  9 10  1  0  0  0  0
  9 24  1  0  0  0  0
  9 39  1  0  0  0  0
 10 11  1  0  0  0  0
 10 40  1  0  0  0  0
 11 12  2  0  0  0  0
 11 13  1  0  0  0  0
 13 14  1  0  0  0  0
 13 23  2  0  0  0  0
 14 15  2  0  0  0  0
 14 41  1  0  0  0  0
 15 16  1  0  0  0  0
 15 22  1  0  0  0  0
 16 17  1  0  0  0  0
 16 42  1  0  0  0  0
 16 43  1  0  0  0  0
 17 18  1  0  0  0  0
 17 44  1  0  0  0  0
 17 45  1  0  0  0  0
 18 19  1  0  0  0  0
 18 46  1  0  0  0  0
 18 47  1  0  0  0  0
 19 20  1  0  0  0  0
 19 48  1  0  0  0  0
 19 49  1  0  0  0  0
 20 21  1  0  0  0  0
 20 50  1  0  0  0  0
 20 51  1  0  0  0  0
 21 52  1  0  0  0  0
 21 53  1  0  0  0  0
 21 54  1  0  0  0  0
 22 23  1  0  0  0  0
 22 55  1  0  0  0  0
 22 56  1  0  0  0  0
 23 57  1  0  0  0  0
 24 58  1  0  0  0  0
M  END
$$$$
