
 OpenBabel04232216493D

 60 61  0  0  1  0  0  0  0  0999 V2000
    1.5543   -0.6464   -2.3784 C   0  0  0  0  0  0  0  0  0  0  0  0
    2.8038   -0.1109   -1.6633 C   0  0  3  0  0  0  0  0  0  0  0  0
    3.9001   -1.1860   -1.6951 C   0  0  0  0  0  0  0  0  0  0  0  0
    5.0329   -1.0244   -0.6847 C   0  0  0  0  0  0  0  0  0  0  0  0
    4.6097   -0.4950    0.6839 C   0  0  0  0  0  0  0  0  0  0  0  0
    4.8186    1.0365    0.8700 C   0  0  0  0  0  0  0  0  0  0  0  0
    3.8263    2.0801    0.2327 C   0  0  3  0  0  0  0  0  0  0  0  0
    2.5557    1.5818    0.6809 O   0  0  0  0  0  0  0  0  0  0  0  0
    1.4018    2.3587    0.4680 C   0  0  0  0  0  0  0  0  0  0  0  0
    3.9268    2.3460   -1.3046 C   0  0  3  0  0  3  0  0  0  0  0  0
    4.0699    3.9143   -1.8323 C   0  0  0  0  0  0  0  0  0  0  0  0
    3.6043    4.7913   -1.0913 O   0  0  0  0  0  0  0  0  0  0  0  0
    4.7484    4.3368   -3.1978 C   0  0  0  0  0  0  0  0  0  0  0  0
    5.4104    3.3146   -3.7503 C   0  0  0  0  0  0  0  0  0  0  0  0
    5.8977    3.0685   -5.0109 N   0  0  0  0  0  0  0  0  0  0  0  0
    7.2437    3.4867   -5.3607 C   0  0  0  0  0  0  0  0  0  0  0  0
    7.1846    4.9066   -5.8167 C   0  0  0  0  0  0  0  0  0  0  0  0
    8.0259    5.3070   -6.9992 C   0  0  0  0  0  0  0  0  0  0  0  0
    7.3312    6.4985   -7.6651 C   0  0  0  0  0  0  0  0  0  0  0  0
    7.1389    7.6822   -6.6927 C   0  0  0  0  0  0  0  0  0  0  0  0
    5.8617    7.7595   -5.7616 C   0  0  0  0  0  0  0  0  0  0  0  0
    5.6616    7.0282   -4.3069 C   0  0  0  0  0  0  0  0  0  0  0  0
    4.5431    5.8073   -3.9807 C   0  0  0  0  0  0  0  0  0  0  0  0
    3.2329    1.3054   -2.2169 C   0  0  0  0  0  0  0  0  0  0  0  0
    1.2785   -1.6351   -1.9869 H   0  0  0  0  0  0  0  0  0  0  0  0
    1.7039   -0.7339   -3.4555 H   0  0  0  0  0  0  0  0  0  0  0  0
    0.7000    0.0122   -2.1844 H   0  0  0  0  0  0  0  0  0  0  0  0
    2.4519   -0.0527   -0.6424 H   0  0  0  0  0  0  0  0  0  0  0  0
    4.3204   -1.2852   -2.7018 H   0  0  0  0  0  0  0  0  0  0  0  0
    3.4334   -2.1650   -1.4838 H   0  0  0  0  0  0  0  0  0  0  0  0
    5.8294   -0.3998   -1.1031 H   0  0  0  0  0  0  0  0  0  0  0  0
    5.4788   -2.0182   -0.5457 H   0  0  0  0  0  0  0  0  0  0  0  0
    5.2502   -0.9985    1.4262 H   0  0  0  0  0  0  0  0  0  0  0  0
    3.5984   -0.8239    0.9569 H   0  0  0  0  0  0  0  0  0  0  0  0
    5.8563    1.2874    0.6428 H   0  0  0  0  0  0  0  0  0  0  0  0
    4.7083    1.1594    1.9617 H   0  0  0  0  0  0  0  0  0  0  0  0
    4.0104    3.0247    0.7581 H   0  0  0  0  0  0  0  0  0  0  0  0
    0.5417    1.7215    0.7021 H   0  0  0  0  0  0  0  0  0  0  0  0
    1.3054    2.6688   -0.5733 H   0  0  0  0  0  0  0  0  0  0  0  0
    1.3877    3.2160    1.1427 H   0  0  0  0  0  0  0  0  0  0  0  0
    5.6010    2.4216   -3.1623 H   0  0  0  0  0  0  0  0  0  0  0  0
    5.2521    3.4258   -5.7118 H   0  0  0  0  0  0  0  0  0  0  0  0
    7.6420    2.8140   -6.1256 H   0  0  0  0  0  0  0  0  0  0  0  0
    7.9186    3.3987   -4.4698 H   0  0  0  0  0  0  0  0  0  0  0  0
    7.4921    5.5304   -4.9805 H   0  0  0  0  0  0  0  0  0  0  0  0
    6.1432    5.1448   -6.0677 H   0  0  0  0  0  0  0  0  0  0  0  0
    8.1411    4.4913   -7.7166 H   0  0  0  0  0  0  0  0  0  0  0  0
    9.0279    5.6010   -6.6632 H   0  0  0  0  0  0  0  0  0  0  0  0
    6.3596    6.1966   -8.0766 H   0  0  0  0  0  0  0  0  0  0  0  0
    7.9485    6.8105   -8.5170 H   0  0  0  0  0  0  0  0  0  0  0  0
    7.0776    8.5576   -7.3755 H   0  0  0  0  0  0  0  0  0  0  0  0
    8.0645    7.8566   -6.1297 H   0  0  0  0  0  0  0  0  0  0  0  0
    5.9022    8.8344   -5.4966 H   0  0  0  0  0  0  0  0  0  0  0  0
    4.9605    7.6729   -6.3773 H   0  0  0  0  0  0  0  0  0  0  0  0
    5.2350    7.8738   -3.7368 H   0  0  0  0  0  0  0  0  0  0  0  0
    6.6223    6.8682   -3.8130 H   0  0  0  0  0  0  0  0  0  0  0  0
    4.0694    5.5919   -4.9483 H   0  0  0  0  0  0  0  0  0  0  0  0
    3.7685    6.3257   -3.3962 H   0  0  0  0  0  0  0  0  0  0  0  0
    3.8584    1.1227   -3.0944 H   0  0  0  0  0  0  0  0  0  0  0  0
    2.3262    1.7987   -2.5858 H   0  0  0  0  0  0  0  0  0  0  0  0
  1  2  1  0  0  0  0
  1 25  1  0  0  0  0
  1 26  1  0  0  0  0
  1 27  1  0  0  0  0
  2  3  1  0  0  0  0
  2 24  1  0  0  0  0
  2 28  1  0  0  0  0
  3  4  1  0  0  0  0
  3 29  1  0  0  0  0
  3 30  1  0  0  0  0
  4  5  1  0  0  0  0
  4 31  1  0  0  0  0
  4 32  1  0  0  0  0
  5  6  1  0  0  0  0
  5 33  1  0  0  0  0
  5 34  1  0  0  0  0
  6  7  1  0  0  0  0
  6 35  1  0  0  0  0
  6 36  1  0  0  0  0
  7  8  1  0  0  0  0
  7 10  1  0  0  0  0
  7 37  1  0  0  0  0
  8  9  1  0  0  0  0
  9 38  1  0  0  0  0
  9 39  1  0  0  0  0
  9 40  1  0  0  0  0
 10 11  1  0  0  0  0
 10 24  1  0  0  0  0
 11 12  2  0  0  0  0
 11 13  1  0  0  0  0
 13 14  2  3  0  0  0
 13 23  1  0  0  0  0
 14 15  1  0  0  0  0
 14 41  1  0  0  0  0
 15 16  1  0  0  0  0
 15 42  1  0  0  0  0
 16 17  1  0  0  0  0
 16 43  1  0  0  0  0
 16 44  1  0  0  0  0
 17 18  1  0  0  0  0
 17 45  1  0  0  0  0
 17 46  1  0  0  0  0
 18 19  1  0  0  0  0
 18 47  1  0  0  0  0
 18 48  1  0  0  0  0
 19 20  1  0  0  0  0
 19 49  1  0  0  0  0
 19 50  1  0  0  0  0
 20 21  1  0  0  0  0
 20 51  1  0  0  0  0
 20 52  1  0  0  0  0
 21 22  1  0  0  0  0
 21 53  1  0  0  0  0
 21 54  1  0  0  0  0
 22 23  1  0  0  0  0
 22 55  1  0  0  0  0
 22 56  1  0  0  0  0
 23 57  1  0  0  0  0
 23 58  1  0  0  0  0
 24 59  1  0  0  0  0
 24 60  1  0  0  0  0
M  END
$$$$
