
 OpenBabel04232216443D

 56 57  0  0  1  0  0  0  0  0999 V2000
    1.0420   -0.1289   -0.1382 C   0  0  0  0  0  0  0  0  0  0  0  0
    2.5726   -0.0763   -0.0708 C   0  0  3  0  0  0  0  0  0  0  0  0
    3.0777    1.0850    0.8018 C   0  0  3  0  0  3  0  0  0  0  0  0
    2.8026    1.0217    2.2995 C   0  0  0  0  0  0  0  0  0  0  0  0
    3.1471    2.1754    3.2449 C   0  0  0  0  0  0  0  0  0  0  0  0
    2.4548    3.4886    2.9194 C   0  0  0  0  0  0  0  0  0  0  0  0
    3.0338    4.6076    3.7827 C   0  0  0  0  0  0  0  0  0  0  0  0
    2.3009    5.9210    3.5408 C   0  0  0  0  0  0  0  0  0  0  0  0
    2.8670    7.0270    4.4141 C   0  0  0  0  0  0  0  0  0  0  0  0
    4.0774    2.0260    0.1667 C   0  0  0  0  0  0  0  0  0  0  0  0
    5.4452    2.1507    0.8339 C   0  0  0  0  0  0  0  0  0  0  0  0
    6.4718    1.1693    0.3177 C   0  0  0  0  0  0  0  0  0  0  0  0
    6.9918    1.3310   -0.7847 O   0  0  0  0  0  0  0  0  0  0  0  0
    6.9019    0.0187    1.1939 C   0  0  0  0  0  0  0  0  0  0  0  0
    5.9808   -0.5041    2.0377 C   0  0  0  0  0  0  0  0  0  0  0  0
    5.7659   -1.9515    2.0106 C   0  0  0  0  0  0  0  0  0  0  0  0
    5.2171   -2.5690    0.9408 C   0  0  0  0  0  0  0  0  0  0  0  0
    5.7961   -3.9025    0.6485 C   0  0  0  0  0  0  0  0  0  0  0  0
    5.1155   -4.8740    0.3360 O   0  0  0  0  0  0  0  0  0  0  0  0
    7.1514   -3.9702    0.8239 O   0  0  0  0  0  0  0  0  0  0  0  0
    7.9869   -2.9627    0.2023 C   0  0  0  0  0  0  0  0  0  0  0  0
    8.6192   -1.9882    1.2209 C   0  0  0  0  0  0  0  0  0  0  0  0
    8.2903   -0.5185    0.9059 C   0  0  0  0  0  0  0  0  0  0  0  0
    4.3401   -1.8694    0.0134 C   0  0  0  0  0  0  0  0  0  0  0  0
    3.1839   -1.3435    0.4727 C   0  0  0  0  0  0  0  0  0  0  0  0
    0.6495    0.7770   -0.6167 H   0  0  0  0  0  0  0  0  0  0  0  0
    0.5738   -0.2081    0.8480 H   0  0  0  0  0  0  0  0  0  0  0  0
    0.7035   -0.9861   -0.7308 H   0  0  0  0  0  0  0  0  0  0  0  0
    2.9148    0.0662   -1.1029 H   0  0  0  0  0  0  0  0  0  0  0  0
    3.3375    0.1531    2.6997 H   0  0  0  0  0  0  0  0  0  0  0  0
    1.7388    0.8042    2.4438 H   0  0  0  0  0  0  0  0  0  0  0  0
    4.2241    2.3234    3.3261 H   0  0  0  0  0  0  0  0  0  0  0  0
    2.8531    1.8711    4.2589 H   0  0  0  0  0  0  0  0  0  0  0  0
    1.3798    3.3826    3.1025 H   0  0  0  0  0  0  0  0  0  0  0  0
    2.5779    3.7544    1.8671 H   0  0  0  0  0  0  0  0  0  0  0  0
    4.1002    4.7331    3.5529 H   0  0  0  0  0  0  0  0  0  0  0  0
    2.9652    4.3318    4.8423 H   0  0  0  0  0  0  0  0  0  0  0  0
    1.2348    5.7946    3.7592 H   0  0  0  0  0  0  0  0  0  0  0  0
    2.3871    6.2081    2.4864 H   0  0  0  0  0  0  0  0  0  0  0  0
    2.7941    6.7629    5.4741 H   0  0  0  0  0  0  0  0  0  0  0  0
    2.3138    7.9565    4.2543 H   0  0  0  0  0  0  0  0  0  0  0  0
    3.9203    7.2099    4.1781 H   0  0  0  0  0  0  0  0  0  0  0  0
    3.6138    3.0174    0.1319 H   0  0  0  0  0  0  0  0  0  0  0  0
    4.2235    1.7526   -0.8854 H   0  0  0  0  0  0  0  0  0  0  0  0
    5.4273    2.0791    1.9143 H   0  0  0  0  0  0  0  0  0  0  0  0
    5.8487    3.1501    0.6284 H   0  0  0  0  0  0  0  0  0  0  0  0
    6.1633   -0.2459    3.0883 H   0  0  0  0  0  0  0  0  0  0  0  0
    6.3022   -2.5226    2.7674 H   0  0  0  0  0  0  0  0  0  0  0  0
    7.4476   -2.4441   -0.5937 H   0  0  0  0  0  0  0  0  0  0  0  0
    8.7972   -3.5155   -0.2794 H   0  0  0  0  0  0  0  0  0  0  0  0
    9.7087   -2.0857    1.1428 H   0  0  0  0  0  0  0  0  0  0  0  0
    8.3857   -2.2414    2.2580 H   0  0  0  0  0  0  0  0  0  0  0  0
    8.5636   -0.3423   -0.1414 H   0  0  0  0  0  0  0  0  0  0  0  0
    8.9740    0.1084    1.4969 H   0  0  0  0  0  0  0  0  0  0  0  0
    4.7632   -1.5729   -0.9400 H   0  0  0  0  0  0  0  0  0  0  0  0
    2.8040   -1.6667    1.4400 H   0  0  0  0  0  0  0  0  0  0  0  0
  1  2  1  0  0  0  0
  1 26  1  0  0  0  0
  1 27  1  0  0  0  0
  1 28  1  0  0  0  0
  2  3  1  0  0  0  0
  2 25  1  0  0  0  0
  2 29  1  0  0  0  0
  3  4  1  0  0  0  0
  3 10  1  0  0  0  0
  4  5  1  0  0  0  0
  4 30  1  0  0  0  0
  4 31  1  0  0  0  0
  5  6  1  0  0  0  0
  5 32  1  0  0  0  0
  5 33  1  0  0  0  0
  6  7  1  0  0  0  0
  6 34  1  0  0  0  0
  6 35  1  0  0  0  0
  7  8  1  0  0  0  0
  7 36  1  0  0  0  0
  7 37  1  0  0  0  0
  8  9  1  0  0  0  0
  8 38  1  0  0  0  0
  8 39  1  0  0  0  0
  9 40  1  0  0  0  0
  9 41  1  0  0  0  0
  9 42  1  0  0  0  0
 10 11  1  0  0  0  0
 10 43  1  0  0  0  0
 10 44  1  0  0  0  0
 11 12  1  0  0  0  0
 11 45  1  0  0  0  0
 11 46  1  0  0  0  0
 12 13  2  0  0  0  0
 12 14  1  0  0  0  0
 14 15  2  3  0  0  0
 14 23  1  0  0  0  0
 15 16  1  0  0  0  0
 15 47  1  0  0  0  0
 16 17  2  3  0  0  0
 16 48  1  0  0  0  0
 17 18  1  0  0  0  0
 17 24  1  0  0  0  0
 18 19  2  0  0  0  0
 18 20  1  0  0  0  0
 20 21  1  0  0  0  0
 21 22  1  0  0  0  0
 21 49  1  0  0  0  0
 21 50  1  0  0  0  0
 22 23  1  0  0  0  0
 22 51  1  0  0  0  0
 22 52  1  0  0  0  0
 23 53  1  0  0  0  0
 23 54  1  0  0  0  0
 24 25  2  3  0  0  0
 24 55  1  0  0  0  0
 25 56  1  0  0  0  0
M  END
$$$$
