
 OpenBabel04232216543D

 71 72  0  0  1  0  0  0  0  0999 V2000
    2.0443    5.0657   -1.1504 C   0  0  0  0  0  0  0  0  0  0  0  0
    3.3633    4.5296   -0.5942 C   0  0  0  0  0  0  0  0  0  0  0  0
    4.3522    3.7529   -1.5467 C   0  0  0  0  0  0  0  0  0  0  0  0
    5.0471    4.5314   -2.7665 C   0  0  0  0  0  0  0  0  0  0  0  0
    6.5564    4.2447   -3.2223 N   0  0  0  0  0  0  0  0  0  0  0  0
    7.1805    2.9761   -2.4766 C   0  0  3  0  0  0  0  0  0  0  0  0
    6.4788    1.6086   -2.6607 C   0  0  0  0  0  0  0  0  0  0  0  0
    8.5608    2.8766   -3.0273 C   0  0  0  0  0  0  0  0  0  0  0  0
    9.4556    1.7285   -3.5770 C   0  0  0  0  0  0  0  0  0  0  0  0
    9.4366    2.0832   -5.0556 C   0  0  0  0  0  0  0  0  0  0  0  0
   10.4425    2.1907   -6.1141 C   0  0  0  0  0  0  0  0  0  0  0  0
   11.2392    1.3311   -6.3254 O   0  0  0  0  0  0  0  0  0  0  0  0
   10.2128    3.4811   -6.7761 N   0  0  0  0  0  0  0  0  0  0  0  0
   10.7500    4.5722   -6.0426 C   0  0  0  0  0  0  0  0  0  0  0  0
    9.9397    5.3170   -5.2040 C   0  0  0  0  0  0  0  0  0  0  0  0
    8.4188    5.5160   -5.2856 C   0  0  0  0  0  0  0  0  0  0  0  0
    8.2455    6.3569   -6.5240 N   0  0  0  0  0  0  0  0  0  0  0  0
    9.2159    7.3303   -7.3106 C   0  0  0  0  0  0  0  0  0  0  0  0
   10.4557    7.0179   -8.3091 C   0  0  0  0  0  0  0  0  0  0  0  0
   10.2677    6.8639   -9.8759 C   0  0  0  0  0  0  0  0  0  0  0  0
   11.5587    6.8206  -10.8092 C   0  0  0  0  0  0  0  0  0  0  0  0
   11.7963    5.5309  -11.6478 C   0  0  0  0  0  0  0  0  0  0  0  0
   12.8735    4.6080  -11.0697 C   0  0  0  0  0  0  0  0  0  0  0  0
   12.4386    4.0197   -9.7329 C   0  0  0  0  0  0  0  0  0  0  0  0
   13.4824    4.2207   -8.6259 C   0  0  0  0  0  0  0  0  0  0  0  0
   12.9648    3.7014   -7.2763 C   0  0  0  0  0  0  0  0  0  0  0  0
   12.2964    4.6846   -6.2344 C   0  0  0  0  0  0  0  0  0  0  0  0
    7.2504    5.1110   -4.4778 C   0  0  0  0  0  0  0  0  0  0  0  0
    1.5737    5.7323   -0.4095 H   0  0  0  0  0  0  0  0  0  0  0  0
    1.3135    4.2684   -1.3324 H   0  0  0  0  0  0  0  0  0  0  0  0
    2.1819    5.6426   -2.0657 H   0  0  0  0  0  0  0  0  0  0  0  0
    3.0756    3.8561    0.2324 H   0  0  0  0  0  0  0  0  0  0  0  0
    3.8986    5.3562   -0.1163 H   0  0  0  0  0  0  0  0  0  0  0  0
    3.7760    2.8994   -1.9395 H   0  0  0  0  0  0  0  0  0  0  0  0
    5.0963    3.3257   -0.8674 H   0  0  0  0  0  0  0  0  0  0  0  0
    4.9928    5.5966   -2.5345 H   0  0  0  0  0  0  0  0  0  0  0  0
    4.4166    4.3269   -3.6398 H   0  0  0  0  0  0  0  0  0  0  0  0
    7.2340    3.1932   -1.4038 H   0  0  0  0  0  0  0  0  0  0  0  0
    6.0749    1.4476   -3.6646 H   0  0  0  0  0  0  0  0  0  0  0  0
    5.6825    1.4241   -1.9312 H   0  0  0  0  0  0  0  0  0  0  0  0
    7.1841    0.7866   -2.4623 H   0  0  0  0  0  0  0  0  0  0  0  0
    9.1518    3.7496   -2.7376 H   0  0  0  0  0  0  0  0  0  0  0  0
    8.0995    3.1187   -3.9749 H   0  0  0  0  0  0  0  0  0  0  0  0
    9.0874    0.7170   -3.4140 H   0  0  0  0  0  0  0  0  0  0  0  0
   10.4621    1.8042   -3.1384 H   0  0  0  0  0  0  0  0  0  0  0  0
    9.4819    3.1421   -4.8677 H   0  0  0  0  0  0  0  0  0  0  0  0
    8.4803    1.8641   -5.5223 H   0  0  0  0  0  0  0  0  0  0  0  0
    9.2147    3.6536   -6.8752 H   0  0  0  0  0  0  0  0  0  0  0  0
   10.4083    6.0890   -4.5870 H   0  0  0  0  0  0  0  0  0  0  0  0
    7.4018    6.9073   -6.3412 H   0  0  0  0  0  0  0  0  0  0  0  0
    9.6045    8.0342   -6.5612 H   0  0  0  0  0  0  0  0  0  0  0  0
    8.5352    7.9222   -7.9372 H   0  0  0  0  0  0  0  0  0  0  0  0
   11.1120    6.2366   -7.9510 H   0  0  0  0  0  0  0  0  0  0  0  0
   11.0735    7.9346   -8.2465 H   0  0  0  0  0  0  0  0  0  0  0  0
    9.7218    7.7545  -10.2141 H   0  0  0  0  0  0  0  0  0  0  0  0
    9.6438    5.9951  -10.0887 H   0  0  0  0  0  0  0  0  0  0  0  0
   12.4778    7.1088  -10.2842 H   0  0  0  0  0  0  0  0  0  0  0  0
   11.4180    7.6013  -11.5758 H   0  0  0  0  0  0  0  0  0  0  0  0
   12.1445    5.8095  -12.6558 H   0  0  0  0  0  0  0  0  0  0  0  0
   10.8629    4.9784  -11.8013 H   0  0  0  0  0  0  0  0  0  0  0  0
   13.8243    5.1490  -10.9903 H   0  0  0  0  0  0  0  0  0  0  0  0
   13.0609    3.7877  -11.7797 H   0  0  0  0  0  0  0  0  0  0  0  0
   12.2524    2.9465   -9.8801 H   0  0  0  0  0  0  0  0  0  0  0  0
   11.4853    4.4407   -9.4117 H   0  0  0  0  0  0  0  0  0  0  0  0
   13.8217    5.2566   -8.5613 H   0  0  0  0  0  0  0  0  0  0  0  0
   14.3517    3.6074   -8.9079 H   0  0  0  0  0  0  0  0  0  0  0  0
   13.7936    3.1984   -6.7668 H   0  0  0  0  0  0  0  0  0  0  0  0
   12.2964    2.8986   -7.5663 H   0  0  0  0  0  0  0  0  0  0  0  0
   12.5919    5.7144   -6.4797 H   0  0  0  0  0  0  0  0  0  0  0  0
   12.7514    4.4679   -5.2606 H   0  0  0  0  0  0  0  0  0  0  0  0
    6.3148    5.5368   -4.8463 H   0  0  0  0  0  0  0  0  0  0  0  0
  1  2  1  0  0  0  0
  1 29  1  0  0  0  0
  1 30  1  0  0  0  0
  1 31  1  0  0  0  0
  2  3  1  0  0  0  0
  2 32  1  0  0  0  0
  2 33  1  0  0  0  0
  3  4  1  0  0  0  0
  3 34  1  0  0  0  0
  3 35  1  0  0  0  0
  4  5  1  0  0  0  0
  4 36  1  0  0  0  0
  4 37  1  0  0  0  0
  5  6  1  0  0  0  0
  5 28  1  0  0  0  0
  6  7  1  0  0  0  0
  6  8  1  0  0  0  0
  6 38  1  0  0  0  0
  7 39  1  0  0  0  0
  7 40  1  0  0  0  0
  7 41  1  0  0  0  0
  8  9  1  0  0  0  0
  8 42  1  0  0  0  0
  8 43  1  0  0  0  0
  9 10  1  0  0  0  0
  9 44  1  0  0  0  0
  9 45  1  0  0  0  0
 10 11  1  0  0  0  0
 10 46  1  0  0  0  0
 10 47  1  0  0  0  0
 11 12  2  0  0  0  0
 11 13  1  0  0  0  0
 13 14  1  0  0  0  0
 13 48  1  0  0  0  0
 14 15  2  3  0  0  0
 14 27  1  0  0  0  0
 15 16  1  0  0  0  0
 15 49  1  0  0  0  0
 16 17  1  0  0  0  0
 16 28  2  3  0  0  0
 17 18  1  0  0  0  0
 17 50  1  0  0  0  0
 18 19  1  0  0  0  0
 18 51  1  0  0  0  0
 18 52  1  0  0  0  0
 19 20  1  0  0  0  0
 19 53  1  0  0  0  0
 19 54  1  0  0  0  0
 20 21  1  0  0  0  0
 20 55  1  0  0  0  0
 20 56  1  0  0  0  0
 21 22  1  0  0  0  0
 21 57  1  0  0  0  0
 21 58  1  0  0  0  0
 22 23  1  0  0  0  0
 22 59  1  0  0  0  0
 22 60  1  0  0  0  0
 23 24  1  0  0  0  0
 23 61  1  0  0  0  0
 23 62  1  0  0  0  0
 24 25  1  0  0  0  0
 24 63  1  0  0  0  0
 24 64  1  0  0  0  0
 25 26  1  0  0  0  0
 25 65  1  0  0  0  0
 25 66  1  0  0  0  0
 26 27  1  0  0  0  0
 26 67  1  0  0  0  0
 26 68  1  0  0  0  0
 27 69  1  0  0  0  0
 27 70  1  0  0  0  0
 28 71  1  0  0  0  0
M  END
$$$$
