
 OpenBabel04232216473D

 55 57  0  0  0  0  0  0  0  0999 V2000
    1.1070    0.2300   -0.8650 C   0  0  0  0  0  0  0  0  0  0  0  0
    2.5550    0.0008   -1.2962 C   0  0  0  0  0  0  0  0  0  0  0  0
    2.7667   -1.2961   -2.0062 C   0  0  0  0  0  0  0  0  0  0  0  0
    3.9196   -1.9578   -1.8720 C   0  0  0  0  0  0  0  0  0  0  0  0
    4.8504   -1.5786   -0.9160 N   0  0  0  0  0  0  0  0  0  0  0  0
    6.3458   -1.6286   -1.0928 C   0  0  0  0  0  0  0  0  0  0  0  0
    6.9641   -1.0837   -2.3880 C   0  0  0  0  0  0  0  0  0  0  0  0
    6.9632    0.4366   -2.6196 C   0  0  0  0  0  0  0  0  0  0  0  0
    7.7370    1.2520   -1.5739 C   0  0  0  0  0  0  0  0  0  0  0  0
    7.7456    2.7508   -1.9076 C   0  0  0  0  0  0  0  0  0  0  0  0
    8.4255    3.5622   -0.8125 C   0  0  0  0  0  0  0  0  0  0  0  0
    4.1085   -3.2802   -2.5120 C   0  0  0  0  0  0  0  0  0  0  0  0
    3.4563   -4.3260   -1.9411 C   0  0  0  0  0  0  0  0  0  0  0  0
    4.0184   -4.6628   -0.6103 C   0  0  0  0  0  0  0  0  0  0  0  0
    3.6610   -3.8895    0.4349 C   0  0  0  0  0  0  0  0  0  0  0  0
    4.6607   -3.4201    1.4047 C   0  0  0  0  0  0  0  0  0  0  0  0
    5.0663   -4.5520    2.3301 C   0  0  0  0  0  0  0  0  0  0  0  0
    5.1315   -2.1126    1.3839 C   0  0  0  0  0  0  0  0  0  0  0  0
    6.1623   -1.6429    2.3555 C   0  0  0  0  0  0  0  0  0  0  0  0
    4.4606   -1.0552    0.4261 C   0  0  0  0  0  0  0  0  0  0  0  0
    3.2291   -0.7532    1.2990 C   0  0  0  0  0  3  0  0  0  0  0  0
    3.4790    0.5665    1.9112 C   0  0  0  0  0  0  0  0  0  0  0  0
    4.3449    1.2547    1.1380 C   0  0  0  0  0  0  0  0  0  0  0  0
    4.5266    0.4506   -0.0446 C   0  0  0  0  0  0  0  0  0  0  0  0
    3.4794    0.8759   -0.9564 N   0  0  0  0  0  0  0  0  0  0  0  0
    0.6226   -0.7494   -0.6743 H   0  0  0  0  0  0  0  0  0  0  0  0
    0.5360    0.7523   -1.6218 H   0  0  0  0  0  0  0  0  0  0  0  0
    1.0599    0.7719    0.0857 H   0  0  0  0  0  0  0  0  0  0  0  0
    1.9331   -1.7079   -2.5590 H   0  0  0  0  0  0  0  0  0  0  0  0
    6.6620   -2.6712   -0.9736 H   0  0  0  0  0  0  0  0  0  0  0  0
    6.8427   -1.0877   -0.2754 H   0  0  0  0  0  0  0  0  0  0  0  0
    6.5192   -1.5748   -3.2581 H   0  0  0  0  0  0  0  0  0  0  0  0
    8.0206   -1.3929   -2.3804 H   0  0  0  0  0  0  0  0  0  0  0  0
    5.9343    0.7991   -2.7000 H   0  0  0  0  0  0  0  0  0  0  0  0
    7.4329    0.6178   -3.5968 H   0  0  0  0  0  0  0  0  0  0  0  0
    8.7733    0.8953   -1.5149 H   0  0  0  0  0  0  0  0  0  0  0  0
    7.2936    1.1155   -0.5846 H   0  0  0  0  0  0  0  0  0  0  0  0
    6.7181    3.1123   -2.0311 H   0  0  0  0  0  0  0  0  0  0  0  0
    8.2665    2.9234   -2.8570 H   0  0  0  0  0  0  0  0  0  0  0  0
    7.9040    3.4424    0.1427 H   0  0  0  0  0  0  0  0  0  0  0  0
    8.4233    4.6276   -1.0658 H   0  0  0  0  0  0  0  0  0  0  0  0
    9.4656    3.2488   -0.6772 H   0  0  0  0  0  0  0  0  0  0  0  0
    5.1834   -3.4377   -2.6583 H   0  0  0  0  0  0  0  0  0  0  0  0
    2.3673   -4.2619   -1.8888 H   0  0  0  0  0  0  0  0  0  0  0  0
    4.9809   -5.1682   -0.6432 H   0  0  0  0  0  0  0  0  0  0  0  0
    2.7471   -3.3026    0.3669 H   0  0  0  0  0  0  0  0  0  0  0  0
    6.1394   -4.5471    2.4922 H   0  0  0  0  0  0  0  0  0  0  0  0
    4.8243   -5.5314    1.8792 H   0  0  0  0  0  0  0  0  0  0  0  0
    4.5218   -4.4732    3.2660 H   0  0  0  0  0  0  0  0  0  0  0  0
    7.0423   -2.2943    2.3267 H   0  0  0  0  0  0  0  0  0  0  0  0
    5.7483   -1.6477    3.3692 H   0  0  0  0  0  0  0  0  0  0  0  0
    6.4979   -0.6332    2.1162 H   0  0  0  0  0  0  0  0  0  0  0  0
    2.5757   -1.4532    1.7929 H   0  0  0  0  0  0  0  0  0  0  0  0
    3.0089    0.9943    2.7815 H   0  0  0  0  0  0  0  0  0  0  0  0
    4.6451    2.2886    1.1954 H   0  0  0  0  0  0  0  0  0  0  0  0
  1  2  1  0  0  0  0
  1 26  1  0  0  0  0
  1 27  1  0  0  0  0
  1 28  1  0  0  0  0
  2  3  1  0  0  0  0
  2 25  2  0  0  0  0
  3  4  2  0  0  0  0
  3 29  1  0  0  0  0
  4  5  1  0  0  0  0
  4 12  1  0  0  0  0
  5  6  1  0  0  0  0
  5 20  1  0  0  0  0
  6  7  1  0  0  0  0
  6 30  1  0  0  0  0
  6 31  1  0  0  0  0
  7  8  1  0  0  0  0
  7 32  1  0  0  0  0
  7 33  1  0  0  0  0
  8  9  1  0  0  0  0
  8 34  1  0  0  0  0
  8 35  1  0  0  0  0
  9 10  1  0  0  0  0
  9 36  1  0  0  0  0
  9 37  1  0  0  0  0
 10 11  1  0  0  0  0
 10 38  1  0  0  0  0
 10 39  1  0  0  0  0
 11 40  1  0  0  0  0
 11 41  1  0  0  0  0
 11 42  1  0  0  0  0
 12 13  2  3  0  0  0
 12 43  1  0  0  0  0
 13 14  1  0  0  0  0
 13 44  1  0  0  0  0
 14 15  2  3  0  0  0
 14 45  1  0  0  0  0
 15 16  1  0  0  0  0
 15 46  1  0  0  0  0
 16 17  1  0  0  0  0
 16 18  2  3  0  0  0
 17 47  1  0  0  0  0
 17 48  1  0  0  0  0
 17 49  1  0  0  0  0
 18 19  1  0  0  0  0
 18 20  1  0  0  0  0
 19 50  1  0  0  0  0
 19 51  1  0  0  0  0
 19 52  1  0  0  0  0
 20 21  1  0  0  0  0
 20 24  2  0  0  0  0
 21 22  1  0  0  0  0
 21 53  1  0  0  0  0
 22 23  2  0  0  0  0
 22 54  1  0  0  0  0
 23 24  1  0  0  0  0
 23 55  1  0  0  0  0
 24 25  1  0  0  0  0
M  END
$$$$
