
 OpenBabel04232216443D

 63 64  0  0  0  0  0  0  0  0999 V2000
    6.6510    1.9141   -0.3045 C   0  0  0  0  0  0  0  0  0  0  0  0
    7.3001    2.8757    1.0603 C   0  0  0  0  0  0  0  0  0  0  0  0
    5.8453    2.6173    1.6842 C   0  0  0  0  0  0  0  0  0  0  0  0
    3.9732    2.4522    1.5697 C   0  0  0  0  0  0  0  0  0  0  0  0
    2.8459    2.8084    2.7564 C   0  0  0  0  0  0  0  0  0  0  0  0
    5.8733    1.1704    2.3575 C   0  0  0  0  0  0  0  0  0  0  0  0
    5.6713    1.7173    3.7379 C   0  0  0  0  0  0  0  0  0  0  0  0
    6.9899    2.3700    3.9293 C   0  0  0  0  0  0  0  0  0  0  0  0
    7.1099    3.5632    4.7895 C   0  0  0  0  0  0  0  0  0  0  0  0
    8.5900    3.8363    4.6192 C   0  0  0  0  0  0  0  0  0  0  0  0
    9.1937    4.6915    5.6882 C   0  0  0  0  0  0  0  0  0  0  0  0
   10.6889    4.4391    5.9891 C   0  0  0  0  0  0  0  0  0  0  0  0
   11.1147    3.4522    6.5741 O   0  0  0  0  0  0  0  0  0  0  0  0
   11.6018    5.3137    5.1621 C   0  0  0  0  0  0  0  0  0  0  0  0
   11.2685    4.8389    3.7686 C   0  0  0  0  0  0  0  0  0  0  0  0
   10.4947    3.9325    2.3998 C   0  0  0  0  0  0  0  0  0  0  0  0
   12.4513    3.8286    2.4598 C   0  0  0  0  0  0  0  0  0  0  0  0
   13.8196    4.6988    3.6519 C   0  0  0  0  0  0  0  0  0  0  0  0
   15.6366    4.9176    4.1756 C   0  0  0  0  0  0  0  0  0  0  0  0
   16.1290    5.9382    5.4631 C   0  0  0  0  0  0  0  0  0  0  0  0
   17.2456    6.5856    6.3739 C   0  0  0  0  0  0  0  0  0  0  0  0
   16.2175    7.3425    7.3299 C   0  0  0  0  0  0  0  0  0  0  0  0
   14.4174    7.1351    7.0522 C   0  0  0  0  0  0  0  0  0  0  0  0
   12.9205    6.2246    6.2290 C   0  0  0  0  0  0  0  0  0  0  0  0
    9.0329    3.3408    1.6126 C   0  0  0  0  0  0  0  0  0  0  0  0
    5.5072    1.8396   -0.2608 H   0  0  0  0  0  0  0  0  0  0  0  0
    6.8019    0.8405   -0.2397 H   0  0  0  0  0  0  0  0  0  0  0  0
    6.6278    2.3269   -1.3466 H   0  0  0  0  0  0  0  0  0  0  0  0
    3.7301    1.3631    1.5829 H   0  0  0  0  0  0  0  0  0  0  0  0
    3.5488    2.7063    0.5965 H   0  0  0  0  0  0  0  0  0  0  0  0
    3.1209    2.6049    3.8045 H   0  0  0  0  0  0  0  0  0  0  0  0
    1.9390    2.1677    2.6622 H   0  0  0  0  0  0  0  0  0  0  0  0
    2.4690    3.8331    2.7065 H   0  0  0  0  0  0  0  0  0  0  0  0
    6.8090    0.6301    2.1473 H   0  0  0  0  0  0  0  0  0  0  0  0
    5.1263    0.4180    2.0469 H   0  0  0  0  0  0  0  0  0  0  0  0
    5.3267    0.9911    4.4640 H   0  0  0  0  0  0  0  0  0  0  0  0
    4.9549    2.5377    3.7649 H   0  0  0  0  0  0  0  0  0  0  0  0
    7.1936    2.9779    3.0679 H   0  0  0  0  0  0  0  0  0  0  0  0
    7.7883    1.6308    3.8286 H   0  0  0  0  0  0  0  0  0  0  0  0
    6.7318    3.3519    5.7752 H   0  0  0  0  0  0  0  0  0  0  0  0
    6.5465    4.4081    4.3388 H   0  0  0  0  0  0  0  0  0  0  0  0
    8.6289    4.4016    3.6777 H   0  0  0  0  0  0  0  0  0  0  0  0
    9.1549    2.9012    4.4569 H   0  0  0  0  0  0  0  0  0  0  0  0
    8.6224    4.5736    6.5956 H   0  0  0  0  0  0  0  0  0  0  0  0
    9.1048    5.7135    5.3055 H   0  0  0  0  0  0  0  0  0  0  0  0
   11.0752    3.7935    4.1255 H   0  0  0  0  0  0  0  0  0  0  0  0
   12.8348    4.1405    1.4463 H   0  0  0  0  0  0  0  0  0  0  0  0
   12.7044    2.7534    2.7079 H   0  0  0  0  0  0  0  0  0  0  0  0
   13.5662    4.2272    4.6266 H   0  0  0  0  0  0  0  0  0  0  0  0
   13.5478    5.7682    3.6352 H   0  0  0  0  0  0  0  0  0  0  0  0
   16.2102    5.2908    3.3349 H   0  0  0  0  0  0  0  0  0  0  0  0
   15.9738    3.9531    4.5489 H   0  0  0  0  0  0  0  0  0  0  0  0
   15.6953    5.3853    6.3025 H   0  0  0  0  0  0  0  0  0  0  0  0
   15.7151    6.8975    5.1415 H   0  0  0  0  0  0  0  0  0  0  0  0
   17.9605    7.3387    5.9587 H   0  0  0  0  0  0  0  0  0  0  0  0
   17.9195    5.9678    7.0171 H   0  0  0  0  0  0  0  0  0  0  0  0
   16.4960    7.1576    8.3980 H   0  0  0  0  0  0  0  0  0  0  0  0
   16.4657    8.4324    7.2834 H   0  0  0  0  0  0  0  0  0  0  0  0
   14.2179    6.8988    8.1143 H   0  0  0  0  0  0  0  0  0  0  0  0
   14.1655    8.1989    6.9514 H   0  0  0  0  0  0  0  0  0  0  0  0
   12.5208    7.2025    5.9387 H   0  0  0  0  0  0  0  0  0  0  0  0
   12.5120    5.9229    7.2064 H   0  0  0  0  0  0  0  0  0  0  0  0
    9.5624    2.6115    0.7899 H   0  0  0  0  0  0  0  0  0  0  0  0
  1  2  1  0  0  0  0
  1 26  1  0  0  0  0
  1 27  1  0  0  0  0
  1 28  1  0  0  0  0
  2  3  2  3  0  0  0
  2 25  1  0  0  0  0
  3  4  1  0  0  0  0
  3  6  1  0  0  0  0
  4  5  1  0  0  0  0
  4 29  1  0  0  0  0
  4 30  1  0  0  0  0
  5 31  1  0  0  0  0
  5 32  1  0  0  0  0
  5 33  1  0  0  0  0
  6  7  1  0  0  0  0
  6 34  1  0  0  0  0
  6 35  1  0  0  0  0
  7  8  1  0  0  0  0
  7 36  1  0  0  0  0
  7 37  1  0  0  0  0
  8  9  1  0  0  0  0
  8 38  1  0  0  0  0
  8 39  1  0  0  0  0
  9 10  1  0  0  0  0
  9 40  1  0  0  0  0
  9 41  1  0  0  0  0
 10 11  1  0  0  0  0
 10 42  1  0  0  0  0
 10 43  1  0  0  0  0
 11 12  1  0  0  0  0
 11 44  1  0  0  0  0
 11 45  1  0  0  0  0
 12 13  2  0  0  0  0
 12 14  1  0  0  0  0
 14 15  2  3  0  0  0
 14 24  1  0  0  0  0
 15 16  1  0  0  0  0
 15 46  1  0  0  0  0
 16 17  1  0  0  0  0
 16 25  2  3  0  0  0
 17 18  1  0  0  0  0
 17 47  1  0  0  0  0
 17 48  1  0  0  0  0
 18 19  1  0  0  0  0
 18 49  1  0  0  0  0
 18 50  1  0  0  0  0
 19 20  1  0  0  0  0
 19 51  1  0  0  0  0
 19 52  1  0  0  0  0
 20 21  1  0  0  0  0
 20 53  1  0  0  0  0
 20 54  1  0  0  0  0
 21 22  1  0  0  0  0
 21 55  1  0  0  0  0
 21 56  1  0  0  0  0
 22 23  1  0  0  0  0
 22 57  1  0  0  0  0
 22 58  1  0  0  0  0
 23 24  1  0  0  0  0
 23 59  1  0  0  0  0
 23 60  1  0  0  0  0
 24 61  1  0  0  0  0
 24 62  1  0  0  0  0
 25 63  1  0  0  0  0
M  END
$$$$
