
 OpenBabel04232216593D

238237  0  0  0  0  0  0  0  0999 V2000
    1.0883    0.0062   -0.1031 N   0  0  0  0  0  0  0  0  0  0  0  0
    2.7351    0.1469   -0.0262 S   0  0  0  0  0  0  0  0  0  0  0  0
    3.2910   -1.3692   -0.8857 C   0  0  0  0  0  0  0  0  0  0  0  0
    4.8271   -1.3955   -0.9107 C   0  0  0  0  0  0  0  0  0  0  0  0
    5.3642   -2.6443   -1.6188 C   0  0  0  0  0  0  0  0  0  0  0  0
    6.8350   -2.6248   -1.6151 N   0  0  0  0  0  0  0  0  0  0  0  0
    7.3082   -3.7936   -2.2824 N   0  0  0  0  0  0  0  0  0  0  0  0
    8.7282   -3.8126   -2.2940 N   0  0  0  0  0  0  0  0  0  0  0  0
    9.1920   -4.9829   -2.9606 N   0  0  0  0  0  0  0  0  0  0  0  0
   10.6496   -4.9590   -2.9564 C   0  0  0  0  0  0  0  0  0  0  0  0
   11.1659   -6.2041   -3.6659 C   0  0  0  0  0  0  0  0  0  0  0  0
   12.6878   -6.2104   -3.6762 C   0  0  0  0  0  0  0  0  0  0  0  0
   13.2032   -7.4513   -4.3853 C   0  0  0  0  0  0  0  0  0  0  0  0
   14.7216   -7.4553   -4.3923 C   0  0  0  0  0  0  0  0  0  0  0  0
   15.2334   -8.6959   -5.1011 C   0  0  0  0  0  0  0  0  0  0  0  0
   16.7505   -8.6977   -5.1091 C   0  0  0  0  0  0  0  0  0  0  0  0
   17.2611   -9.9369   -5.8196 C   0  0  0  0  0  0  0  0  0  0  0  0
   18.7779   -9.9373   -5.8291 C   0  0  0  0  0  0  0  0  0  0  0  0
   19.2882  -11.1756   -6.5414 C   0  0  0  0  0  0  0  0  0  0  0  0
   20.8051  -11.1779   -6.5499 C   0  0  0  0  0  0  0  0  0  0  0  0
   21.3152  -12.4125   -7.2621 C   0  0  0  0  0  0  0  0  0  0  0  0
   22.8302  -12.4165   -7.2692 C   0  0  0  0  0  0  0  0  0  0  0  0
   23.3421  -13.6527   -7.9803 C   0  0  0  0  0  0  0  0  0  0  0  0
   24.8571  -13.6561   -7.9891 C   0  0  0  0  0  0  0  0  0  0  0  0
   25.3690  -14.8920   -8.7000 C   0  0  0  0  0  0  0  0  0  0  0  0
   26.8838  -14.8963   -8.7072 C   0  0  0  0  0  0  0  0  0  0  0  0
   27.3956  -16.1323   -9.4180 C   0  0  0  0  0  0  0  0  0  0  0  0
   28.9105  -16.1366   -9.4252 C   0  0  0  0  0  0  0  0  0  0  0  0
   29.4223  -17.3725  -10.1360 C   0  0  0  0  0  0  0  0  0  0  0  0
   30.9371  -17.3768  -10.1432 C   0  0  0  0  0  0  0  0  0  0  0  0
   31.4490  -18.6127  -10.8541 C   0  0  0  0  0  0  0  0  0  0  0  0
   32.9638  -18.6171  -10.8612 C   0  0  0  0  0  0  0  0  0  0  0  0
   33.4756  -19.8529  -11.5722 C   0  0  0  0  0  0  0  0  0  0  0  0
   34.9904  -19.8582  -11.5776 C   0  0  0  0  0  0  0  0  0  0  0  0
   35.5023  -21.0942  -12.2884 C   0  0  0  0  0  0  0  0  0  0  0  0
   37.0171  -21.1005  -12.2920 C   0  0  0  0  0  0  0  0  0  0  0  0
   37.5289  -22.3374  -13.0011 C   0  0  0  0  0  0  0  0  0  0  0  0
   39.0437  -22.3448  -13.0031 C   0  0  0  0  0  0  0  0  0  0  0  0
   39.5556  -23.5807  -13.7139 C   0  0  0  0  0  0  0  0  0  0  0  0
   41.0704  -23.5871  -13.7175 C   0  0  0  0  0  0  0  0  0  0  0  0
   41.5822  -24.8220  -14.4301 C   0  0  0  0  0  0  0  0  0  0  0  0
   43.0971  -24.8283  -14.4338 C   0  0  0  0  0  0  0  0  0  0  0  0
   43.6089  -26.0631  -15.1465 C   0  0  0  0  0  0  0  0  0  0  0  0
   45.1237  -26.0695  -15.1501 C   0  0  0  0  0  0  0  0  0  0  0  0
   45.6356  -27.3044  -15.8627 C   0  0  0  0  0  0  0  0  0  0  0  0
   47.1504  -27.3107  -15.8664 C   0  0  0  0  0  0  0  0  0  0  0  0
   47.6622  -28.5456  -16.5791 C   0  0  0  0  0  0  0  0  0  0  0  0
   49.1771  -28.5519  -16.5827 C   0  0  0  0  0  0  0  0  0  0  0  0
   49.6889  -29.7868  -17.2953 C   0  0  0  0  0  0  0  0  0  0  0  0
   51.2037  -29.7941  -17.2973 C   0  0  0  0  0  0  0  0  0  0  0  0
   51.7155  -31.0290  -18.0099 C   0  0  0  0  0  0  0  0  0  0  0  0
   53.2304  -31.0354  -18.0134 C   0  0  0  0  0  0  0  0  0  0  0  0
   53.7422  -32.2712  -18.7245 C   0  0  0  0  0  0  0  0  0  0  0  0
   55.2570  -32.2785  -18.7264 C   0  0  0  0  0  0  0  0  0  0  0  0
   55.7689  -33.5136  -19.4388 C   0  0  0  0  0  0  0  0  0  0  0  0
   57.2837  -33.5218  -19.4391 C   0  0  0  0  0  0  0  0  0  0  0  0
   57.7955  -34.7577  -20.1501 C   0  0  0  0  0  0  0  0  0  0  0  0
   59.3103  -34.7651  -20.1518 C   0  0  0  0  0  0  0  0  0  0  0  0
   59.8222  -36.0010  -20.8627 C   0  0  0  0  0  0  0  0  0  0  0  0
   61.3370  -36.0093  -20.8629 C   0  0  0  0  0  0  0  0  0  0  0  0
   61.8488  -37.2452  -21.5738 C   0  0  0  0  0  0  0  0  0  0  0  0
   63.3637  -37.2536  -21.5739 C   0  0  0  0  0  0  0  0  0  0  0  0
   63.8755  -38.4895  -22.2848 C   0  0  0  0  0  0  0  0  0  0  0  0
   65.3903  -38.4978  -22.2850 C   0  0  0  0  0  0  0  0  0  0  0  0
   65.9021  -39.7337  -22.9958 C   0  0  0  0  0  0  0  0  0  0  0  0
   67.4170  -39.7421  -22.9960 C   0  0  0  0  0  0  0  0  0  0  0  0
   67.9288  -40.9780  -23.7068 C   0  0  0  0  0  0  0  0  0  0  0  0
   69.4436  -40.9863  -23.7070 C   0  0  0  0  0  0  0  0  0  0  0  0
   69.9555  -42.2222  -24.4179 C   0  0  0  0  0  0  0  0  0  0  0  0
   71.4704  -42.2297  -24.4198 C   0  0  0  0  0  0  0  0  0  0  0  0
   71.9824  -43.4659  -25.1309 C   0  0  0  0  0  0  0  0  0  0  0  0
   73.4981  -43.4728  -25.1326 C   0  0  0  0  0  0  0  0  0  0  0  0
   74.0106  -44.7091  -25.8434 C   0  0  0  0  0  0  0  0  0  0  0  0
   75.5239  -44.7148  -25.8447 C   0  0  0  0  0  0  0  0  0  0  0  0
   76.0355  -45.9534  -26.5571 C   0  0  0  0  0  0  0  0  0  0  0  0
   77.5526  -45.9580  -26.5598 C   0  0  0  0  0  0  0  0  0  0  0  0
   78.0650  -47.1966  -27.2722 C   0  0  0  0  0  0  0  0  0  0  0  0
   79.5833  -47.2023  -27.2755 C   0  0  0  0  0  0  0  0  0  0  0  0
   80.0971  -48.4425  -27.9865 C   0  0  0  0  0  0  0  0  0  0  0  0
   81.6182  -48.4543  -27.9956 C   0  0  0  0  0  0  0  0  0  0  0  0
   82.1282  -49.6921  -28.7053 C   0  0  0  0  0  0  0  0  0  0  0  0
    0.6640    0.8287    0.3303 H   0  0  0  0  0  0  0  0  0  0  0  0
    0.7508   -0.7805    0.4512 H   0  0  0  0  0  0  0  0  0  0  0  0
    2.9026   -1.3905   -1.9106 H   0  0  0  0  0  0  0  0  0  0  0  0
    2.9139   -2.2525   -0.3587 H   0  0  0  0  0  0  0  0  0  0  0  0
    5.2173   -1.3717    0.1156 H   0  0  0  0  0  0  0  0  0  0  0  0
    5.2088   -0.5040   -1.4264 H   0  0  0  0  0  0  0  0  0  0  0  0
    4.9940   -2.6618   -2.6513 H   0  0  0  0  0  0  0  0  0  0  0  0
    4.9956   -3.5438   -1.1097 H   0  0  0  0  0  0  0  0  0  0  0  0
    7.1629   -2.6327   -0.6499 H   0  0  0  0  0  0  0  0  0  0  0  0
    6.9750   -3.7822   -3.2454 H   0  0  0  0  0  0  0  0  0  0  0  0
    9.0580   -3.8147   -1.3293 H   0  0  0  0  0  0  0  0  0  0  0  0
    8.8517   -4.9716   -3.9217 H   0  0  0  0  0  0  0  0  0  0  0  0
   11.0289   -4.9498   -1.9270 H   0  0  0  0  0  0  0  0  0  0  0  0
   11.0266   -4.0633   -3.4658 H   0  0  0  0  0  0  0  0  0  0  0  0
   10.7927   -6.2363   -4.6975 H   0  0  0  0  0  0  0  0  0  0  0  0
   10.7996   -7.1064   -3.1594 H   0  0  0  0  0  0  0  0  0  0  0  0
   13.0697   -6.1863   -2.6481 H   0  0  0  0  0  0  0  0  0  0  0  0
   13.0624   -5.3123   -4.1827 H   0  0  0  0  0  0  0  0  0  0  0  0
   12.8272   -7.4770   -5.4155 H   0  0  0  0  0  0  0  0  0  0  0  0
   12.8319   -8.3520   -3.8811 H   0  0  0  0  0  0  0  0  0  0  0  0
   15.1008   -7.4315   -3.3632 H   0  0  0  0  0  0  0  0  0  0  0  0
   15.0960   -6.5566   -4.8977 H   0  0  0  0  0  0  0  0  0  0  0  0
   14.8550   -8.7215   -6.1304 H   0  0  0  0  0  0  0  0  0  0  0  0
   14.8620   -9.5957   -4.5955 H   0  0  0  0  0  0  0  0  0  0  0  0
   17.1301   -8.6742   -4.0802 H   0  0  0  0  0  0  0  0  0  0  0  0
   17.1229   -7.7978   -5.6140 H   0  0  0  0  0  0  0  0  0  0  0  0
   16.8810   -9.9614   -6.8483 H   0  0  0  0  0  0  0  0  0  0  0  0
   16.8904  -10.8371   -5.3141 H   0  0  0  0  0  0  0  0  0  0  0  0
   19.1580   -9.9143   -4.8004 H   0  0  0  0  0  0  0  0  0  0  0  0
   19.1487   -9.0365   -6.3334 H   0  0  0  0  0  0  0  0  0  0  0  0
   18.9089  -11.1974   -7.5703 H   0  0  0  0  0  0  0  0  0  0  0  0
   18.9161  -12.0760   -6.0378 H   0  0  0  0  0  0  0  0  0  0  0  0
   21.1836  -11.1558   -5.5200 H   0  0  0  0  0  0  0  0  0  0  0  0
   21.1766  -10.2753   -7.0511 H   0  0  0  0  0  0  0  0  0  0  0  0
   20.9370  -12.4336   -8.2922 H   0  0  0  0  0  0  0  0  0  0  0  0
   20.9417  -13.3149   -6.7615 H   0  0  0  0  0  0  0  0  0  0  0  0
   23.2092  -12.3944   -6.2394 H   0  0  0  0  0  0  0  0  0  0  0  0
   23.2044  -11.5152   -7.7712 H   0  0  0  0  0  0  0  0  0  0  0  0
   22.9625  -13.6761   -9.0098 H   0  0  0  0  0  0  0  0  0  0  0  0
   22.9695  -14.5545   -7.4775 H   0  0  0  0  0  0  0  0  0  0  0  0
   25.2370  -13.6329   -6.9596 H   0  0  0  0  0  0  0  0  0  0  0  0
   25.2300  -12.7545   -8.4919 H   0  0  0  0  0  0  0  0  0  0  0  0
   24.9903  -14.9145   -9.7300 H   0  0  0  0  0  0  0  0  0  0  0  0
   24.9951  -15.7937   -8.1981 H   0  0  0  0  0  0  0  0  0  0  0  0
   27.2625  -14.8739   -7.6772 H   0  0  0  0  0  0  0  0  0  0  0  0
   27.2578  -13.9947   -9.2091 H   0  0  0  0  0  0  0  0  0  0  0  0
   27.0170  -16.1548  -10.4480 H   0  0  0  0  0  0  0  0  0  0  0  0
   27.0217  -17.0339   -8.9161 H   0  0  0  0  0  0  0  0  0  0  0  0
   29.2892  -16.1141   -8.3952 H   0  0  0  0  0  0  0  0  0  0  0  0
   29.2844  -15.2349   -9.9271 H   0  0  0  0  0  0  0  0  0  0  0  0
   29.0436  -17.3950  -11.1660 H   0  0  0  0  0  0  0  0  0  0  0  0
   29.0483  -18.2742   -9.6341 H   0  0  0  0  0  0  0  0  0  0  0  0
   31.3158  -17.3543   -9.1132 H   0  0  0  0  0  0  0  0  0  0  0  0
   31.3111  -16.4752  -10.6451 H   0  0  0  0  0  0  0  0  0  0  0  0
   31.0703  -18.6352  -11.8841 H   0  0  0  0  0  0  0  0  0  0  0  0
   31.0750  -19.5144  -10.3522 H   0  0  0  0  0  0  0  0  0  0  0  0
   33.3424  -18.5946   -9.8312 H   0  0  0  0  0  0  0  0  0  0  0  0
   33.3378  -17.7154  -11.3631 H   0  0  0  0  0  0  0  0  0  0  0  0
   33.0981  -19.8747  -12.6025 H   0  0  0  0  0  0  0  0  0  0  0  0
   33.1005  -20.7546  -11.0711 H   0  0  0  0  0  0  0  0  0  0  0  0
   35.3679  -19.8365  -10.5471 H   0  0  0  0  0  0  0  0  0  0  0  0
   35.3656  -18.9566  -12.0785 H   0  0  0  0  0  0  0  0  0  0  0  0
   35.1259  -21.1152  -13.3192 H   0  0  0  0  0  0  0  0  0  0  0  0
   35.1259  -21.9958  -11.7882 H   0  0  0  0  0  0  0  0  0  0  0  0
   37.3934  -21.0781  -11.2612 H   0  0  0  0  0  0  0  0  0  0  0  0
   37.3934  -20.1996  -12.7934 H   0  0  0  0  0  0  0  0  0  0  0  0
   37.1537  -22.3591  -14.0324 H   0  0  0  0  0  0  0  0  0  0  0  0
   37.1515  -23.2384  -12.5006 H   0  0  0  0  0  0  0  0  0  0  0  0
   39.4189  -22.3245  -11.9718 H   0  0  0  0  0  0  0  0  0  0  0  0
   39.4212  -21.4431  -13.5024 H   0  0  0  0  0  0  0  0  0  0  0  0
   39.1793  -23.6017  -14.7448 H   0  0  0  0  0  0  0  0  0  0  0  0
   39.1792  -24.4823  -13.2138 H   0  0  0  0  0  0  0  0  0  0  0  0
   41.4467  -23.5674  -12.6867 H   0  0  0  0  0  0  0  0  0  0  0  0
   41.4468  -22.6847  -14.2165 H   0  0  0  0  0  0  0  0  0  0  0  0
   41.2059  -24.8415  -15.4611 H   0  0  0  0  0  0  0  0  0  0  0  0
   41.2059  -25.7243  -13.9313 H   0  0  0  0  0  0  0  0  0  0  0  0
   43.4734  -24.8087  -13.4030 H   0  0  0  0  0  0  0  0  0  0  0  0
   43.4734  -23.9259  -14.9327 H   0  0  0  0  0  0  0  0  0  0  0  0
   43.2326  -26.0827  -16.1774 H   0  0  0  0  0  0  0  0  0  0  0  0
   43.2326  -26.9655  -14.6476 H   0  0  0  0  0  0  0  0  0  0  0  0
   45.5001  -26.0499  -14.1192 H   0  0  0  0  0  0  0  0  0  0  0  0
   45.5001  -25.1671  -15.6490 H   0  0  0  0  0  0  0  0  0  0  0  0
   45.2592  -27.3239  -16.8937 H   0  0  0  0  0  0  0  0  0  0  0  0
   45.2592  -28.2067  -15.3639 H   0  0  0  0  0  0  0  0  0  0  0  0
   47.5267  -27.2911  -14.8355 H   0  0  0  0  0  0  0  0  0  0  0  0
   47.5267  -26.4083  -16.3653 H   0  0  0  0  0  0  0  0  0  0  0  0
   47.2859  -28.5652  -17.6099 H   0  0  0  0  0  0  0  0  0  0  0  0
   47.2859  -29.4479  -16.0801 H   0  0  0  0  0  0  0  0  0  0  0  0
   49.5533  -28.5324  -15.5518 H   0  0  0  0  0  0  0  0  0  0  0  0
   49.5534  -27.6496  -17.0816 H   0  0  0  0  0  0  0  0  0  0  0  0
   49.3137  -29.8056  -18.3266 H   0  0  0  0  0  0  0  0  0  0  0  0
   49.3114  -30.6892  -16.7973 H   0  0  0  0  0  0  0  0  0  0  0  0
   51.5789  -29.7753  -16.2659 H   0  0  0  0  0  0  0  0  0  0  0  0
   51.5812  -28.8918  -17.7953 H   0  0  0  0  0  0  0  0  0  0  0  0
   51.3393  -31.0486  -19.0408 H   0  0  0  0  0  0  0  0  0  0  0  0
   51.3392  -31.9314  -17.5109 H   0  0  0  0  0  0  0  0  0  0  0  0
   53.6067  -31.0144  -16.9826 H   0  0  0  0  0  0  0  0  0  0  0  0
   53.6067  -30.1337  -18.5136 H   0  0  0  0  0  0  0  0  0  0  0  0
   53.3670  -32.2915  -19.7557 H   0  0  0  0  0  0  0  0  0  0  0  0
   53.3648  -33.1729  -18.2251 H   0  0  0  0  0  0  0  0  0  0  0  0
   55.6321  -32.2598  -17.6949 H   0  0  0  0  0  0  0  0  0  0  0  0
   55.6346  -31.3763  -19.2243 H   0  0  0  0  0  0  0  0  0  0  0  0
   55.3949  -33.5316  -20.4706 H   0  0  0  0  0  0  0  0  0  0  0  0
   55.3902  -34.4159  -18.9417 H   0  0  0  0  0  0  0  0  0  0  0  0
   57.6577  -33.5024  -18.4073 H   0  0  0  0  0  0  0  0  0  0  0  0
   57.6623  -32.6202  -19.9375 H   0  0  0  0  0  0  0  0  0  0  0  0
   57.4204  -34.7780  -21.1813 H   0  0  0  0  0  0  0  0  0  0  0  0
   57.4180  -35.6594  -19.6506 H   0  0  0  0  0  0  0  0  0  0  0  0
   59.6855  -34.7448  -19.1205 H   0  0  0  0  0  0  0  0  0  0  0  0
   59.6879  -33.8635  -20.6511 H   0  0  0  0  0  0  0  0  0  0  0  0
   59.4482  -36.0205  -21.8945 H   0  0  0  0  0  0  0  0  0  0  0  0
   59.4435  -36.9026  -20.3643 H   0  0  0  0  0  0  0  0  0  0  0  0
   61.7110  -35.9898  -19.8311 H   0  0  0  0  0  0  0  0  0  0  0  0
   61.7157  -35.1077  -21.3613 H   0  0  0  0  0  0  0  0  0  0  0  0
   61.4749  -37.2648  -22.6055 H   0  0  0  0  0  0  0  0  0  0  0  0
   61.4702  -38.1469  -21.0753 H   0  0  0  0  0  0  0  0  0  0  0  0
   63.7376  -37.2341  -20.5422 H   0  0  0  0  0  0  0  0  0  0  0  0
   63.7423  -36.3520  -22.0724 H   0  0  0  0  0  0  0  0  0  0  0  0
   63.5015  -38.5090  -23.3165 H   0  0  0  0  0  0  0  0  0  0  0  0
   63.4968  -39.3911  -21.7864 H   0  0  0  0  0  0  0  0  0  0  0  0
   65.7643  -38.4783  -21.2532 H   0  0  0  0  0  0  0  0  0  0  0  0
   65.7690  -37.5962  -22.7834 H   0  0  0  0  0  0  0  0  0  0  0  0
   65.5282  -39.7533  -24.0276 H   0  0  0  0  0  0  0  0  0  0  0  0
   65.5235  -40.6354  -22.4974 H   0  0  0  0  0  0  0  0  0  0  0  0
   67.7909  -39.7225  -21.9642 H   0  0  0  0  0  0  0  0  0  0  0  0
   67.7956  -38.8405  -23.4944 H   0  0  0  0  0  0  0  0  0  0  0  0
   67.5548  -40.9975  -24.7386 H   0  0  0  0  0  0  0  0  0  0  0  0
   67.5501  -41.8796  -23.2084 H   0  0  0  0  0  0  0  0  0  0  0  0
   69.8176  -40.9668  -22.6753 H   0  0  0  0  0  0  0  0  0  0  0  0
   69.8223  -40.0847  -24.2055 H   0  0  0  0  0  0  0  0  0  0  0  0
   69.5803  -42.2425  -25.4492 H   0  0  0  0  0  0  0  0  0  0  0  0
   69.5779  -43.1239  -23.9186 H   0  0  0  0  0  0  0  0  0  0  0  0
   71.8454  -42.2093  -23.3885 H   0  0  0  0  0  0  0  0  0  0  0  0
   71.8478  -41.3279  -24.9191 H   0  0  0  0  0  0  0  0  0  0  0  0
   71.6070  -43.4858  -26.1620 H   0  0  0  0  0  0  0  0  0  0  0  0
   71.6046  -44.3671  -24.6314 H   0  0  0  0  0  0  0  0  0  0  0  0
   73.8721  -43.4526  -24.1013 H   0  0  0  0  0  0  0  0  0  0  0  0
   73.8745  -42.5712  -25.6319 H   0  0  0  0  0  0  0  0  0  0  0  0
   73.6337  -44.7290  -26.8748 H   0  0  0  0  0  0  0  0  0  0  0  0
   73.6314  -45.6104  -25.3442 H   0  0  0  0  0  0  0  0  0  0  0  0
   75.8990  -44.6960  -24.8141 H   0  0  0  0  0  0  0  0  0  0  0  0
   75.9013  -43.8145  -26.3449 H   0  0  0  0  0  0  0  0  0  0  0  0
   75.6595  -45.9733  -27.5875 H   0  0  0  0  0  0  0  0  0  0  0  0
   75.6594  -46.8540  -26.0562 H   0  0  0  0  0  0  0  0  0  0  0  0
   77.9274  -45.9375  -25.5290 H   0  0  0  0  0  0  0  0  0  0  0  0
   77.9274  -45.0567  -27.0604 H   0  0  0  0  0  0  0  0  0  0  0  0
   77.6878  -47.2160  -28.3021 H   0  0  0  0  0  0  0  0  0  0  0  0
   77.6877  -48.0966  -26.7710 H   0  0  0  0  0  0  0  0  0  0  0  0
   79.9581  -47.1798  -26.2446 H   0  0  0  0  0  0  0  0  0  0  0  0
   79.9580  -46.3013  -27.7769 H   0  0  0  0  0  0  0  0  0  0  0  0
   79.7163  -48.4639  -29.0152 H   0  0  0  0  0  0  0  0  0  0  0  0
   79.7186  -49.3410  -27.4835 H   0  0  0  0  0  0  0  0  0  0  0  0
   81.9976  -48.4347  -26.9673 H   0  0  0  0  0  0  0  0  0  0  0  0
   81.9952  -47.5570  -28.5000 H   0  0  0  0  0  0  0  0  0  0  0  0
   81.7761  -50.5977  -28.2009 H   0  0  0  0  0  0  0  0  0  0  0  0
   83.2209  -49.7020  -28.7126 H   0  0  0  0  0  0  0  0  0  0  0  0
   81.7737  -49.7159  -29.7407 H   0  0  0  0  0  0  0  0  0  0  0  0
  1  2  1  0  0  0  0
  1 82  1  0  0  0  0
  1 83  1  0  0  0  0
  2  3  1  0  0  0  0
  3  4  1  0  0  0  0
  3 84  1  0  0  0  0
  3 85  1  0  0  0  0
  4  5  1  0  0  0  0
  4 86  1  0  0  0  0
  4 87  1  0  0  0  0
  5  6  1  0  0  0  0
  5 88  1  0  0  0  0
  5 89  1  0  0  0  0
  6  7  1  0  0  0  0
  6 90  1  0  0  0  0
  7  8  1  0  0  0  0
  7 91  1  0  0  0  0
  8  9  1  0  0  0  0
  8 92  1  0  0  0  0
  9 10  1  0  0  0  0
  9 93  1  0  0  0  0
 10 11  1  0  0  0  0
 10 94  1  0  0  0  0
 10 95  1  0  0  0  0
 11 12  1  0  0  0  0
 11 96  1  0  0  0  0
 11 97  1  0  0  0  0
 12 13  1  0  0  0  0
 12 98  1  0  0  0  0
 12 99  1  0  0  0  0
 13 14  1  0  0  0  0
 13100  1  0  0  0  0
 13101  1  0  0  0  0
 14 15  1  0  0  0  0
 14102  1  0  0  0  0
 14103  1  0  0  0  0
 15 16  1  0  0  0  0
 15104  1  0  0  0  0
 15105  1  0  0  0  0
 16 17  1  0  0  0  0
 16106  1  0  0  0  0
 16107  1  0  0  0  0
 17 18  1  0  0  0  0
 17108  1  0  0  0  0
 17109  1  0  0  0  0
 18 19  1  0  0  0  0
 18110  1  0  0  0  0
 18111  1  0  0  0  0
 19 20  1  0  0  0  0
 19112  1  0  0  0  0
 19113  1  0  0  0  0
 20 21  1  0  0  0  0
 20114  1  0  0  0  0
 20115  1  0  0  0  0
 21 22  1  0  0  0  0
 21116  1  0  0  0  0
 21117  1  0  0  0  0
 22 23  1  0  0  0  0
 22118  1  0  0  0  0
 22119  1  0  0  0  0
 23 24  1  0  0  0  0
 23120  1  0  0  0  0
 23121  1  0  0  0  0
 24 25  1  0  0  0  0
 24122  1  0  0  0  0
 24123  1  0  0  0  0
 25 26  1  0  0  0  0
 25124  1  0  0  0  0
 25125  1  0  0  0  0
 26 27  1  0  0  0  0
 26126  1  0  0  0  0
 26127  1  0  0  0  0
 27 28  1  0  0  0  0
 27128  1  0  0  0  0
 27129  1  0  0  0  0
 28 29  1  0  0  0  0
 28130  1  0  0  0  0
 28131  1  0  0  0  0
 29 30  1  0  0  0  0
 29132  1  0  0  0  0
 29133  1  0  0  0  0
 30 31  1  0  0  0  0
 30134  1  0  0  0  0
 30135  1  0  0  0  0
 31 32  1  0  0  0  0
 31136  1  0  0  0  0
 31137  1  0  0  0  0
 32 33  1  0  0  0  0
 32138  1  0  0  0  0
 32139  1  0  0  0  0
 33 34  1  0  0  0  0
 33140  1  0  0  0  0
 33141  1  0  0  0  0
 34 35  1  0  0  0  0
 34142  1  0  0  0  0
 34143  1  0  0  0  0
 35 36  1  0  0  0  0
 35144  1  0  0  0  0
 35145  1  0  0  0  0
 36 37  1  0  0  0  0
 36146  1  0  0  0  0
 36147  1  0  0  0  0
 37 38  1  0  0  0  0
 37148  1  0  0  0  0
 37149  1  0  0  0  0
 38 39  1  0  0  0  0
 38150  1  0  0  0  0
 38151  1  0  0  0  0
 39 40  1  0  0  0  0
 39152  1  0  0  0  0
 39153  1  0  0  0  0
 40 41  1  0  0  0  0
 40154  1  0  0  0  0
 40155  1  0  0  0  0
 41 42  1  0  0  0  0
 41156  1  0  0  0  0
 41157  1  0  0  0  0
 42 43  1  0  0  0  0
 42158  1  0  0  0  0
 42159  1  0  0  0  0
 43 44  1  0  0  0  0
 43160  1  0  0  0  0
 43161  1  0  0  0  0
 44 45  1  0  0  0  0
 44162  1  0  0  0  0
 44163  1  0  0  0  0
 45 46  1  0  0  0  0
 45164  1  0  0  0  0
 45165  1  0  0  0  0
 46 47  1  0  0  0  0
 46166  1  0  0  0  0
 46167  1  0  0  0  0
 47 48  1  0  0  0  0
 47168  1  0  0  0  0
 47169  1  0  0  0  0
 48 49  1  0  0  0  0
 48170  1  0  0  0  0
 48171  1  0  0  0  0
 49 50  1  0  0  0  0
 49172  1  0  0  0  0
 49173  1  0  0  0  0
 50 51  1  0  0  0  0
 50174  1  0  0  0  0
 50175  1  0  0  0  0
 51 52  1  0  0  0  0
 51176  1  0  0  0  0
 51177  1  0  0  0  0
 52 53  1  0  0  0  0
 52178  1  0  0  0  0
 52179  1  0  0  0  0
 53 54  1  0  0  0  0
 53180  1  0  0  0  0
 53181  1  0  0  0  0
 54 55  1  0  0  0  0
 54182  1  0  0  0  0
 54183  1  0  0  0  0
 55 56  1  0  0  0  0
 55184  1  0  0  0  0
 55185  1  0  0  0  0
 56 57  1  0  0  0  0
 56186  1  0  0  0  0
 56187  1  0  0  0  0
 57 58  1  0  0  0  0
 57188  1  0  0  0  0
 57189  1  0  0  0  0
 58 59  1  0  0  0  0
 58190  1  0  0  0  0
 58191  1  0  0  0  0
 59 60  1  0  0  0  0
 59192  1  0  0  0  0
 59193  1  0  0  0  0
 60 61  1  0  0  0  0
 60194  1  0  0  0  0
 60195  1  0  0  0  0
 61 62  1  0  0  0  0
 61196  1  0  0  0  0
 61197  1  0  0  0  0
 62 63  1  0  0  0  0
 62198  1  0  0  0  0
 62199  1  0  0  0  0
 63 64  1  0  0  0  0
 63200  1  0  0  0  0
 63201  1  0  0  0  0
 64 65  1  0  0  0  0
 64202  1  0  0  0  0
 64203  1  0  0  0  0
 65 66  1  0  0  0  0
 65204  1  0  0  0  0
 65205  1  0  0  0  0
 66 67  1  0  0  0  0
 66206  1  0  0  0  0
 66207  1  0  0  0  0
 67 68  1  0  0  0  0
 67208  1  0  0  0  0
 67209  1  0  0  0  0
 68 69  1  0  0  0  0
 68210  1  0  0  0  0
 68211  1  0  0  0  0
 69 70  1  0  0  0  0
 69212  1  0  0  0  0
 69213  1  0  0  0  0
 70 71  1  0  0  0  0
 70214  1  0  0  0  0
 70215  1  0  0  0  0
 71 72  1  0  0  0  0
 71216  1  0  0  0  0
 71217  1  0  0  0  0
 72 73  1  0  0  0  0
 72218  1  0  0  0  0
 72219  1  0  0  0  0
 73 74  1  0  0  0  0
 73220  1  0  0  0  0
 73221  1  0  0  0  0
 74 75  1  0  0  0  0
 74222  1  0  0  0  0
 74223  1  0  0  0  0
 75 76  1  0  0  0  0
 75224  1  0  0  0  0
 75225  1  0  0  0  0
 76 77  1  0  0  0  0
 76226  1  0  0  0  0
 76227  1  0  0  0  0
 77 78  1  0  0  0  0
 77228  1  0  0  0  0
 77229  1  0  0  0  0
 78 79  1  0  0  0  0
 78230  1  0  0  0  0
 78231  1  0  0  0  0
 79 80  1  0  0  0  0
 79232  1  0  0  0  0
 79233  1  0  0  0  0
 80 81  1  0  0  0  0
 80234  1  0  0  0  0
 80235  1  0  0  0  0
 81236  1  0  0  0  0
 81237  1  0  0  0  0
 81238  1  0  0  0  0
M  END
$$$$
