
 OpenBabel04232216493D

 26 26  0  0  0  0  0  0  0  0999 V2000
    3.7766    0.8792   -0.5841 C   0  0  0  0  0  0  0  0  0  0  0  0
    4.8924   -0.0996   -0.9526 C   0  0  0  0  0  0  0  0  0  0  0  0
    4.3512   -1.5134   -1.0934 C   0  0  0  0  0  0  0  0  0  0  0  0
    4.7385   -2.3074    0.1213 C   0  0  0  0  0  0  0  0  0  0  0  0
    5.4066   -3.4666   -0.0169 C   0  0  0  0  0  0  0  0  0  0  0  0
    6.6393   -3.5992    0.7620 C   0  0  0  0  0  0  0  0  0  0  0  0
    7.7530   -3.9331    0.0700 C   0  0  0  0  0  0  0  0  0  0  0  0
    8.5860   -2.7424   -0.1524 C   0  0  0  0  0  0  0  0  0  0  0  0
    8.4505   -2.1583   -1.3587 C   0  0  0  0  0  0  0  0  0  0  0  0
    8.4834   -0.7557   -1.5627 C   0  0  0  0  0  0  0  0  0  0  0  0
    7.5188    0.1822   -1.4386 C   0  0  0  0  0  0  0  0  0  0  0  0
    6.1345    0.4247   -1.0678 C   0  0  0  0  0  0  0  0  0  0  0  0
    2.8266    0.6044   -1.0476 H   0  0  0  0  0  0  0  0  0  0  0  0
    3.9887    1.8983   -0.9309 H   0  0  0  0  0  0  0  0  0  0  0  0
    3.6306    0.9039    0.5034 H   0  0  0  0  0  0  0  0  0  0  0  0
    4.7076   -1.9601   -2.0250 H   0  0  0  0  0  0  0  0  0  0  0  0
    3.2525   -1.5121   -1.1613 H   0  0  0  0  0  0  0  0  0  0  0  0
    4.7769   -1.7515    1.0533 H   0  0  0  0  0  0  0  0  0  0  0  0
    5.3980   -3.9735   -0.9786 H   0  0  0  0  0  0  0  0  0  0  0  0
    6.7368   -2.8029    1.5106 H   0  0  0  0  0  0  0  0  0  0  0  0
    7.6719   -4.5934   -0.7939 H   0  0  0  0  0  0  0  0  0  0  0  0
    8.8559   -2.1592    0.7209 H   0  0  0  0  0  0  0  0  0  0  0  0
    8.2355   -2.7468   -2.2494 H   0  0  0  0  0  0  0  0  0  0  0  0
    9.4632   -0.3828   -1.8884 H   0  0  0  0  0  0  0  0  0  0  0  0
    7.9409    1.1676   -1.6729 H   0  0  0  0  0  0  0  0  0  0  0  0
    6.1180    1.4944   -0.8189 H   0  0  0  0  0  0  0  0  0  0  0  0
  1  2  1  0  0  0  0
  1 13  1  0  0  0  0
  1 14  1  0  0  0  0
  1 15  1  0  0  0  0
  2  3  1  0  0  0  0
  2 12  2  3  0  0  0
  3  4  1  0  0  0  0
  3 16  1  0  0  0  0
  3 17  1  0  0  0  0
  4  5  2  3  0  0  0
  4 18  1  0  0  0  0
  5  6  1  0  0  0  0
  5 19  1  0  0  0  0
  6  7  2  3  0  0  0
  6 20  1  0  0  0  0
  7  8  1  0  0  0  0
  7 21  1  0  0  0  0
  8  9  2  3  0  0  0
  8 22  1  0  0  0  0
  9 10  1  0  0  0  0
  9 23  1  0  0  0  0
 10 11  2  3  0  0  0
 10 24  1  0  0  0  0
 11 12  1  0  0  0  0
 11 25  1  0  0  0  0
 12 26  1  0  0  0  0
M  END
$$$$
