
 OpenBabel04232217013D

234234  0  0  1  0  0  0  0  0999 V2000
    1.1003    0.0789   -0.1417 O   0  0  0  0  0  0  0  0  0  0  0  0
    2.5319    0.0552    0.0825 N   0  0  0  0  0  0  0  0  0  0  0  0
    3.1510   -0.7119   -0.9908 C   0  0  0  0  0  0  0  0  0  0  0  0
    3.1996    0.7957   -0.9819 C   0  0  3  0  0  0  0  0  0  0  0  0
    4.4505    1.5413   -0.6324 C   0  0  0  0  0  0  0  0  0  0  0  0
    4.2025    3.0468   -0.7074 C   0  0  0  0  0  0  0  0  0  0  0  0
    5.4586    3.8259   -0.3562 C   0  0  0  0  0  0  0  0  0  0  0  0
    5.1908    5.3208   -0.4334 C   0  0  0  0  0  0  0  0  0  0  0  0
    6.4522    6.0898   -0.0816 C   0  0  0  0  0  0  0  0  0  0  0  0
    6.1911    7.5827   -0.1581 C   0  0  0  0  0  0  0  0  0  0  0  0
    7.4536    8.3460    0.1968 C   0  0  0  0  0  0  0  0  0  0  0  0
    7.1928    9.8382    0.1204 C   0  0  0  0  0  0  0  0  0  0  0  0
    8.4550   10.6005    0.4753 C   0  0  0  0  0  0  0  0  0  0  0  0
    8.1938   12.0925    0.3988 C   0  0  0  0  0  0  0  0  0  0  0  0
    9.4559   12.8549    0.7536 C   0  0  0  0  0  0  0  0  0  0  0  0
    9.1943   14.3467    0.6770 C   0  0  0  0  0  0  0  0  0  0  0  0
   10.4557   15.1091    1.0337 C   0  0  0  0  0  0  0  0  0  0  0  0
   10.1944   16.6009    0.9572 C   0  0  0  0  0  0  0  0  0  0  0  0
   11.4558   17.3634    1.3139 C   0  0  0  0  0  0  0  0  0  0  0  0
   11.1945   18.8552    1.2374 C   0  0  0  0  0  0  0  0  0  0  0  0
   12.4560   19.6177    1.5941 C   0  0  0  0  0  0  0  0  0  0  0  0
   12.1946   21.1096    1.5176 C   0  0  0  0  0  0  0  0  0  0  0  0
   13.4561   21.8720    1.8743 C   0  0  0  0  0  0  0  0  0  0  0  0
   13.1948   23.3639    1.7978 C   0  0  0  0  0  0  0  0  0  0  0  0
   14.4563   24.1264    2.1545 C   0  0  0  0  0  0  0  0  0  0  0  0
   14.1949   25.6183    2.0780 C   0  0  0  0  0  0  0  0  0  0  0  0
   15.4559   26.3807    2.4367 C   0  0  0  0  0  0  0  0  0  0  0  0
   15.1945   27.8726    2.3601 C   0  0  0  0  0  0  0  0  0  0  0  0
   16.4560   28.6351    2.7169 C   0  0  0  0  0  0  0  0  0  0  0  0
   16.1942   30.1270    2.6423 C   0  0  0  0  0  0  0  0  0  0  0  0
   17.4556   30.8895    2.9991 C   0  0  0  0  0  0  0  0  0  0  0  0
   17.1943   32.3814    2.9225 C   0  0  0  0  0  0  0  0  0  0  0  0
   18.4553   33.1439    3.2812 C   0  0  0  0  0  0  0  0  0  0  0  0
   18.1939   34.6358    3.2047 C   0  0  0  0  0  0  0  0  0  0  0  0
   19.4549   35.3982    3.5634 C   0  0  0  0  0  0  0  0  0  0  0  0
   19.1935   36.8902    3.4868 C   0  0  0  0  0  0  0  0  0  0  0  0
   20.4545   37.6526    3.8455 C   0  0  0  0  0  0  0  0  0  0  0  0
   20.1932   39.1445    3.7690 C   0  0  0  0  0  0  0  0  0  0  0  0
   21.4541   39.9070    4.1277 C   0  0  0  0  0  0  0  0  0  0  0  0
   21.1922   41.3989    4.0530 C   0  0  0  0  0  0  0  0  0  0  0  0
   22.4537   42.1614    4.4098 C   0  0  0  0  0  0  0  0  0  0  0  0
   22.1918   43.6533    4.3352 C   0  0  0  0  0  0  0  0  0  0  0  0
   23.4533   44.4157    4.6920 C   0  0  0  0  0  0  0  0  0  0  0  0
   23.1914   45.9077    4.6174 C   0  0  0  0  0  0  0  0  0  0  0  0
   24.4535   46.6701    4.9722 C   0  0  0  0  0  0  0  0  0  0  0  0
   24.1910   48.1620    4.8995 C   0  0  0  0  0  0  0  0  0  0  0  0
   25.4536   48.9245    5.2524 C   0  0  0  0  0  0  0  0  0  0  0  0
   25.1907   50.4164    5.1816 C   0  0  0  0  0  0  0  0  0  0  0  0
   26.4538   51.1789    5.5326 C   0  0  0  0  0  0  0  0  0  0  0  0
   26.1903   52.6708    5.4638 C   0  0  0  0  0  0  0  0  0  0  0  0
   27.4534   53.4333    5.8147 C   0  0  0  0  0  0  0  0  0  0  0  0
   27.1899   54.9252    5.7460 C   0  0  0  0  0  0  0  0  0  0  0  0
   28.4525   55.6876    6.0988 C   0  0  0  0  0  0  0  0  0  0  0  0
   28.1890   57.1795    6.0300 C   0  0  0  0  0  0  0  0  0  0  0  0
   29.4515   57.9420    6.3829 C   0  0  0  0  0  0  0  0  0  0  0  0
   29.1886   59.4339    6.3122 C   0  0  0  0  0  0  0  0  0  0  0  0
   30.4512   60.1964    6.6651 C   0  0  0  0  0  0  0  0  0  0  0  0
   30.1877   61.6883    6.5963 C   0  0  0  0  0  0  0  0  0  0  0  0
   31.4508   62.4507    6.9472 C   0  0  0  0  0  0  0  0  0  0  0  0
   31.1867   63.9426    6.8804 C   0  0  0  0  0  0  0  0  0  0  0  0
   32.4504   64.7051    7.2294 C   0  0  0  0  0  0  0  0  0  0  0  0
   32.1858   66.1970    7.1645 C   0  0  0  0  0  0  0  0  0  0  0  0
   33.4500   66.9595    7.5115 C   0  0  0  0  0  0  0  0  0  0  0  0
   33.1849   68.4513    7.4486 C   0  0  0  0  0  0  0  0  0  0  0  0
   34.4485   69.2138    7.7976 C   0  0  0  0  0  0  0  0  0  0  0  0
   34.1839   70.7056    7.7327 C   0  0  0  0  0  0  0  0  0  0  0  0
   35.4476   71.4681    8.0817 C   0  0  0  0  0  0  0  0  0  0  0  0
   35.1824   72.9599    8.0187 C   0  0  0  0  0  0  0  0  0  0  0  0
   36.4466   73.7223    8.3657 C   0  0  0  0  0  0  0  0  0  0  0  0
   36.1809   75.2141    8.3047 C   0  0  0  0  0  0  0  0  0  0  0  0
   37.4448   75.9762    8.6537 C   0  0  0  0  0  0  0  0  0  0  0  0
   37.1789   77.4682    8.5948 C   0  0  0  0  0  0  0  0  0  0  0  0
   38.4427   78.2310    8.9438 C   0  0  0  0  0  0  0  0  0  0  0  0
   38.1764   79.7236    8.8868 C   0  0  0  0  0  0  0  0  0  0  0  0
   39.4393   80.4885    9.2377 C   0  0  0  0  0  0  0  0  0  0  0  0
   39.1731   81.9827    9.1808 C   0  0  0  0  0  0  0  0  0  0  0  0
   40.4363   82.7502    9.5318 C   0  0  0  0  0  0  0  0  0  0  0  0
   40.1782   84.2484    9.4792 C   0  0  0  0  0  0  0  0  0  0  0  0
   41.4400   85.0110    9.8298 C   0  0  0  0  0  0  0  0  0  0  0  0
    0.7956   -0.2605    0.7130 H   0  0  0  0  0  0  0  0  0  0  0  0
    2.4944   -1.1857   -1.7112 H   0  0  0  0  0  0  0  0  0  0  0  0
    4.0157   -1.2891   -0.7016 H   0  0  0  0  0  0  0  0  0  0  0  0
    2.6223    1.2824   -1.7616 H   0  0  0  0  0  0  0  0  0  0  0  0
    5.2505    1.2677   -1.3302 H   0  0  0  0  0  0  0  0  0  0  0  0
    4.8001    1.2787    0.3749 H   0  0  0  0  0  0  0  0  0  0  0  0
    3.3871    3.3252   -0.0278 H   0  0  0  0  0  0  0  0  0  0  0  0
    3.8769    3.3201   -1.7190 H   0  0  0  0  0  0  0  0  0  0  0  0
    6.2684    3.5591   -1.0464 H   0  0  0  0  0  0  0  0  0  0  0  0
    5.7909    3.5614    0.6541 H   0  0  0  0  0  0  0  0  0  0  0  0
    4.3838    5.5947    0.2581 H   0  0  0  0  0  0  0  0  0  0  0  0
    4.8585    5.5924   -1.4431 H   0  0  0  0  0  0  0  0  0  0  0  0
    7.2601    5.8171   -0.7717 H   0  0  0  0  0  0  0  0  0  0  0  0
    6.7835    5.8210    0.9288 H   0  0  0  0  0  0  0  0  0  0  0  0
    5.3829    7.8568    0.5311 H   0  0  0  0  0  0  0  0  0  0  0  0
    5.8626    7.8537   -1.1690 H   0  0  0  0  0  0  0  0  0  0  0  0
    8.2623    8.0723   -0.4921 H   0  0  0  0  0  0  0  0  0  0  0  0
    7.7824    8.0755    1.2079 H   0  0  0  0  0  0  0  0  0  0  0  0
    6.3844   10.1123    0.8094 H   0  0  0  0  0  0  0  0  0  0  0  0
    6.8642   10.1091   -0.8905 H   0  0  0  0  0  0  0  0  0  0  0  0
    9.2636   10.3267   -0.2137 H   0  0  0  0  0  0  0  0  0  0  0  0
    8.7837   10.3299    1.4863 H   0  0  0  0  0  0  0  0  0  0  0  0
    7.3854   12.3663    1.0878 H   0  0  0  0  0  0  0  0  0  0  0  0
    7.8653   12.3632   -0.6122 H   0  0  0  0  0  0  0  0  0  0  0  0
   10.2643   12.5810    0.0646 H   0  0  0  0  0  0  0  0  0  0  0  0
    9.7844   12.5842    1.7646 H   0  0  0  0  0  0  0  0  0  0  0  0
    8.3848   14.6203    1.3649 H   0  0  0  0  0  0  0  0  0  0  0  0
    8.8669   14.6175   -0.3344 H   0  0  0  0  0  0  0  0  0  0  0  0
   11.2652   14.8354    0.3458 H   0  0  0  0  0  0  0  0  0  0  0  0
   10.7830   14.8381    2.0451 H   0  0  0  0  0  0  0  0  0  0  0  0
    9.3849   16.8745    1.6451 H   0  0  0  0  0  0  0  0  0  0  0  0
    9.8671   16.8718   -0.0542 H   0  0  0  0  0  0  0  0  0  0  0  0
   12.2653   17.0897    0.6260 H   0  0  0  0  0  0  0  0  0  0  0  0
   11.7830   17.0924    2.3253 H   0  0  0  0  0  0  0  0  0  0  0  0
   10.3850   19.1288    1.9253 H   0  0  0  0  0  0  0  0  0  0  0  0
   10.8672   19.1261    0.2260 H   0  0  0  0  0  0  0  0  0  0  0  0
   13.2655   19.3440    0.9063 H   0  0  0  0  0  0  0  0  0  0  0  0
   12.7833   19.3467    2.6055 H   0  0  0  0  0  0  0  0  0  0  0  0
   11.3851   21.3832    2.2054 H   0  0  0  0  0  0  0  0  0  0  0  0
   11.8673   21.3805    0.5062 H   0  0  0  0  0  0  0  0  0  0  0  0
   14.2656   21.5983    1.1865 H   0  0  0  0  0  0  0  0  0  0  0  0
   13.7835   21.6010    2.8857 H   0  0  0  0  0  0  0  0  0  0  0  0
   12.3853   23.6375    2.4856 H   0  0  0  0  0  0  0  0  0  0  0  0
   12.8674   23.6348    0.7864 H   0  0  0  0  0  0  0  0  0  0  0  0
   15.2658   23.8527    1.4667 H   0  0  0  0  0  0  0  0  0  0  0  0
   14.7836   23.8554    3.1659 H   0  0  0  0  0  0  0  0  0  0  0  0
   13.3845   25.8917    2.7648 H   0  0  0  0  0  0  0  0  0  0  0  0
   13.8689   25.8894    1.0663 H   0  0  0  0  0  0  0  0  0  0  0  0
   16.2663   26.1073    1.7499 H   0  0  0  0  0  0  0  0  0  0  0  0
   15.7819   26.1096    3.4484 H   0  0  0  0  0  0  0  0  0  0  0  0
   14.3850   28.1463    3.0480 H   0  0  0  0  0  0  0  0  0  0  0  0
   14.8672   28.1436    1.3488 H   0  0  0  0  0  0  0  0  0  0  0  0
   17.2651   28.3625    2.0282 H   0  0  0  0  0  0  0  0  0  0  0  0
   16.7842   28.3631    3.7277 H   0  0  0  0  0  0  0  0  0  0  0  0
   15.3851   30.3996    3.3310 H   0  0  0  0  0  0  0  0  0  0  0  0
   15.8660   30.3990    1.6315 H   0  0  0  0  0  0  0  0  0  0  0  0
   18.2652   30.6159    2.3112 H   0  0  0  0  0  0  0  0  0  0  0  0
   17.7830   30.6185    4.0104 H   0  0  0  0  0  0  0  0  0  0  0  0
   16.3839   32.6548    3.6093 H   0  0  0  0  0  0  0  0  0  0  0  0
   16.8683   32.6526    1.9108 H   0  0  0  0  0  0  0  0  0  0  0  0
   19.2657   32.8704    2.5944 H   0  0  0  0  0  0  0  0  0  0  0  0
   18.7812   32.8727    4.2929 H   0  0  0  0  0  0  0  0  0  0  0  0
   17.3835   34.9092    3.8914 H   0  0  0  0  0  0  0  0  0  0  0  0
   17.8680   34.9069    2.1929 H   0  0  0  0  0  0  0  0  0  0  0  0
   20.2653   35.1248    2.8766 H   0  0  0  0  0  0  0  0  0  0  0  0
   19.7808   35.1271    4.5751 H   0  0  0  0  0  0  0  0  0  0  0  0
   18.3831   37.1636    4.1736 H   0  0  0  0  0  0  0  0  0  0  0  0
   18.8676   37.1613    2.4751 H   0  0  0  0  0  0  0  0  0  0  0  0
   21.2650   37.3792    3.1587 H   0  0  0  0  0  0  0  0  0  0  0  0
   20.7805   37.3814    4.8572 H   0  0  0  0  0  0  0  0  0  0  0  0
   19.3827   39.4179    4.4558 H   0  0  0  0  0  0  0  0  0  0  0  0
   19.8672   39.4157    2.7572 H   0  0  0  0  0  0  0  0  0  0  0  0
   22.2642   39.6346    3.4400 H   0  0  0  0  0  0  0  0  0  0  0  0
   21.7809   39.6348    5.1388 H   0  0  0  0  0  0  0  0  0  0  0  0
   20.3831   41.6715    4.7418 H   0  0  0  0  0  0  0  0  0  0  0  0
   20.8640   41.6709    3.0423 H   0  0  0  0  0  0  0  0  0  0  0  0
   23.2628   41.8888    3.7211 H   0  0  0  0  0  0  0  0  0  0  0  0
   22.7819   41.8893    5.4206 H   0  0  0  0  0  0  0  0  0  0  0  0
   21.3827   43.9258    5.0239 H   0  0  0  0  0  0  0  0  0  0  0  0
   21.8636   43.9253    3.3244 H   0  0  0  0  0  0  0  0  0  0  0  0
   24.2624   44.1432    4.0032 H   0  0  0  0  0  0  0  0  0  0  0  0
   23.7815   44.1437    5.7027 H   0  0  0  0  0  0  0  0  0  0  0  0
   22.3833   46.1804    5.3072 H   0  0  0  0  0  0  0  0  0  0  0  0
   22.8619   46.1795    3.6070 H   0  0  0  0  0  0  0  0  0  0  0  0
   25.2612   46.3984    4.2815 H   0  0  0  0  0  0  0  0  0  0  0  0
   24.7839   46.3973    5.9820 H   0  0  0  0  0  0  0  0  0  0  0  0
   23.3843   48.4339    5.5913 H   0  0  0  0  0  0  0  0  0  0  0  0
   23.8593   48.4347    3.8901 H   0  0  0  0  0  0  0  0  0  0  0  0
   26.2600   48.6536    4.5597 H   0  0  0  0  0  0  0  0  0  0  0  0
   25.7862   48.6508    6.2613 H   0  0  0  0  0  0  0  0  0  0  0  0
   24.3853   50.6875    5.8754 H   0  0  0  0  0  0  0  0  0  0  0  0
   24.8567   50.6900    4.1732 H   0  0  0  0  0  0  0  0  0  0  0  0
   27.2587   50.9089    4.8380 H   0  0  0  0  0  0  0  0  0  0  0  0
   26.7885   50.9043    6.5405 H   0  0  0  0  0  0  0  0  0  0  0  0
   25.3853   52.9408    6.1584 H   0  0  0  0  0  0  0  0  0  0  0  0
   25.8555   52.9454    4.4559 H   0  0  0  0  0  0  0  0  0  0  0  0
   28.2584   53.1633    5.1201 H   0  0  0  0  0  0  0  0  0  0  0  0
   27.7881   53.1587    6.8227 H   0  0  0  0  0  0  0  0  0  0  0  0
   26.3840   55.1949    6.4395 H   0  0  0  0  0  0  0  0  0  0  0  0
   26.8565   55.2000    4.7376 H   0  0  0  0  0  0  0  0  0  0  0  0
   29.2584   55.4179    5.4053 H   0  0  0  0  0  0  0  0  0  0  0  0
   28.7858   55.4128    7.1071 H   0  0  0  0  0  0  0  0  0  0  0  0
   27.3830   57.4493    6.7236 H   0  0  0  0  0  0  0  0  0  0  0  0
   27.8556   57.4543    5.0217 H   0  0  0  0  0  0  0  0  0  0  0  0
   30.2579   57.6712    5.6903 H   0  0  0  0  0  0  0  0  0  0  0  0
   29.7841   57.6682    7.3918 H   0  0  0  0  0  0  0  0  0  0  0  0
   28.3822   59.7047    7.0049 H   0  0  0  0  0  0  0  0  0  0  0  0
   28.8560   59.7077    5.3033 H   0  0  0  0  0  0  0  0  0  0  0  0
   31.2571   59.9266    5.9715 H   0  0  0  0  0  0  0  0  0  0  0  0
   30.7845   59.9216    7.6734 H   0  0  0  0  0  0  0  0  0  0  0  0
   29.3827   61.9582    7.2909 H   0  0  0  0  0  0  0  0  0  0  0  0
   29.8529   61.9629    5.5884 H   0  0  0  0  0  0  0  0  0  0  0  0
   32.2553   62.1818    6.2517 H   0  0  0  0  0  0  0  0  0  0  0  0
   31.7864   62.1751    7.9546 H   0  0  0  0  0  0  0  0  0  0  0  0
   30.3832   64.2118    7.5769 H   0  0  0  0  0  0  0  0  0  0  0  0
   30.8498   64.2181    5.8734 H   0  0  0  0  0  0  0  0  0  0  0  0
   33.2535   64.4370    6.5320 H   0  0  0  0  0  0  0  0  0  0  0  0
   32.7882   64.4286    8.2358 H   0  0  0  0  0  0  0  0  0  0  0  0
   31.3836   66.4652    7.8630 H   0  0  0  0  0  0  0  0  0  0  0  0
   31.8467   66.4733    6.1585 H   0  0  0  0  0  0  0  0  0  0  0  0
   34.2518   66.6923    6.8122 H   0  0  0  0  0  0  0  0  0  0  0  0
   33.7899   66.6821    8.5170 H   0  0  0  0  0  0  0  0  0  0  0  0
   32.3822   68.7183    8.1469 H   0  0  0  0  0  0  0  0  0  0  0  0
   32.8463   68.7289    6.4427 H   0  0  0  0  0  0  0  0  0  0  0  0
   35.2517   68.9458    7.1001 H   0  0  0  0  0  0  0  0  0  0  0  0
   34.7863   68.9373    8.8040 H   0  0  0  0  0  0  0  0  0  0  0  0
   33.3808   70.9737    8.4302 H   0  0  0  0  0  0  0  0  0  0  0  0
   33.8463   70.9822    6.7263 H   0  0  0  0  0  0  0  0  0  0  0  0
   36.2503   71.2011    7.3833 H   0  0  0  0  0  0  0  0  0  0  0  0
   35.7861   71.1906    9.0876 H   0  0  0  0  0  0  0  0  0  0  0  0
   34.3807   73.2271    8.7182 H   0  0  0  0  0  0  0  0  0  0  0  0
   34.8426   73.2373    7.0132 H   0  0  0  0  0  0  0  0  0  0  0  0
   37.2479   73.4562    7.6654 H   0  0  0  0  0  0  0  0  0  0  0  0
   36.7872   73.4439    9.3706 H   0  0  0  0  0  0  0  0  0  0  0  0
   35.3786   75.4800    9.0040 H   0  0  0  0  0  0  0  0  0  0  0  0
   35.8416   75.4928    7.2994 H   0  0  0  0  0  0  0  0  0  0  0  0
   38.2465   75.7113    7.9535 H   0  0  0  0  0  0  0  0  0  0  0  0
   37.7847   75.6964    9.6585 H   0  0  0  0  0  0  0  0  0  0  0  0
   36.3769   77.7327    9.2949 H   0  0  0  0  0  0  0  0  0  0  0  0
   36.8387   77.7477    7.5900 H   0  0  0  0  0  0  0  0  0  0  0  0
   39.2439   77.9667    8.2428 H   0  0  0  0  0  0  0  0  0  0  0  0
   38.7833   77.9496    9.9478 H   0  0  0  0  0  0  0  0  0  0  0  0
   37.3735   79.9863    9.5866 H   0  0  0  0  0  0  0  0  0  0  0  0
   37.8365   80.0038    7.8822 H   0  0  0  0  0  0  0  0  0  0  0  0
   40.2415   80.2242    8.5378 H   0  0  0  0  0  0  0  0  0  0  0  0
   39.7786   80.2067   10.2421 H   0  0  0  0  0  0  0  0  0  0  0  0
   38.3699   82.2439    9.8806 H   0  0  0  0  0  0  0  0  0  0  0  0
   38.8329   82.2615    8.1759 H   0  0  0  0  0  0  0  0  0  0  0  0
   41.2373   82.4836    8.8311 H   0  0  0  0  0  0  0  0  0  0  0  0
   40.7758   82.4639   10.5350 H   0  0  0  0  0  0  0  0  0  0  0  0
   39.3790   84.5144   10.1808 H   0  0  0  0  0  0  0  0  0  0  0  0
   39.8407   84.5341    8.4760 H   0  0  0  0  0  0  0  0  0  0  0  0
   41.7794   84.7523   10.8379 H   0  0  0  0  0  0  0  0  0  0  0  0
   41.2549   86.0873    9.7920 H   0  0  0  0  0  0  0  0  0  0  0  0
   42.2433   84.7721    9.1254 H   0  0  0  0  0  0  0  0  0  0  0  0
  1  2  1  0  0  0  0
  1 80  1  0  0  0  0
  2  3  1  0  0  0  0
  2  4  1  0  0  0  0
  3  4  1  0  0  0  0
  3 81  1  0  0  0  0
  3 82  1  0  0  0  0
  4  5  1  0  0  0  0
  4 83  1  0  0  0  0
  5  6  1  0  0  0  0
  5 84  1  0  0  0  0
  5 85  1  0  0  0  0
  6  7  1  0  0  0  0
  6 86  1  0  0  0  0
  6 87  1  0  0  0  0
  7  8  1  0  0  0  0
  7 88  1  0  0  0  0
  7 89  1  0  0  0  0
  8  9  1  0  0  0  0
  8 90  1  0  0  0  0
  8 91  1  0  0  0  0
  9 10  1  0  0  0  0
  9 92  1  0  0  0  0
  9 93  1  0  0  0  0
 10 11  1  0  0  0  0
 10 94  1  0  0  0  0
 10 95  1  0  0  0  0
 11 12  1  0  0  0  0
 11 96  1  0  0  0  0
 11 97  1  0  0  0  0
 12 13  1  0  0  0  0
 12 98  1  0  0  0  0
 12 99  1  0  0  0  0
 13 14  1  0  0  0  0
 13100  1  0  0  0  0
 13101  1  0  0  0  0
 14 15  1  0  0  0  0
 14102  1  0  0  0  0
 14103  1  0  0  0  0
 15 16  1  0  0  0  0
 15104  1  0  0  0  0
 15105  1  0  0  0  0
 16 17  1  0  0  0  0
 16106  1  0  0  0  0
 16107  1  0  0  0  0
 17 18  1  0  0  0  0
 17108  1  0  0  0  0
 17109  1  0  0  0  0
 18 19  1  0  0  0  0
 18110  1  0  0  0  0
 18111  1  0  0  0  0
 19 20  1  0  0  0  0
 19112  1  0  0  0  0
 19113  1  0  0  0  0
 20 21  1  0  0  0  0
 20114  1  0  0  0  0
 20115  1  0  0  0  0
 21 22  1  0  0  0  0
 21116  1  0  0  0  0
 21117  1  0  0  0  0
 22 23  1  0  0  0  0
 22118  1  0  0  0  0
 22119  1  0  0  0  0
 23 24  1  0  0  0  0
 23120  1  0  0  0  0
 23121  1  0  0  0  0
 24 25  1  0  0  0  0
 24122  1  0  0  0  0
 24123  1  0  0  0  0
 25 26  1  0  0  0  0
 25124  1  0  0  0  0
 25125  1  0  0  0  0
 26 27  1  0  0  0  0
 26126  1  0  0  0  0
 26127  1  0  0  0  0
 27 28  1  0  0  0  0
 27128  1  0  0  0  0
 27129  1  0  0  0  0
 28 29  1  0  0  0  0
 28130  1  0  0  0  0
 28131  1  0  0  0  0
 29 30  1  0  0  0  0
 29132  1  0  0  0  0
 29133  1  0  0  0  0
 30 31  1  0  0  0  0
 30134  1  0  0  0  0
 30135  1  0  0  0  0
 31 32  1  0  0  0  0
 31136  1  0  0  0  0
 31137  1  0  0  0  0
 32 33  1  0  0  0  0
 32138  1  0  0  0  0
 32139  1  0  0  0  0
 33 34  1  0  0  0  0
 33140  1  0  0  0  0
 33141  1  0  0  0  0
 34 35  1  0  0  0  0
 34142  1  0  0  0  0
 34143  1  0  0  0  0
 35 36  1  0  0  0  0
 35144  1  0  0  0  0
 35145  1  0  0  0  0
 36 37  1  0  0  0  0
 36146  1  0  0  0  0
 36147  1  0  0  0  0
 37 38  1  0  0  0  0
 37148  1  0  0  0  0
 37149  1  0  0  0  0
 38 39  1  0  0  0  0
 38150  1  0  0  0  0
 38151  1  0  0  0  0
 39 40  1  0  0  0  0
 39152  1  0  0  0  0
 39153  1  0  0  0  0
 40 41  1  0  0  0  0
 40154  1  0  0  0  0
 40155  1  0  0  0  0
 41 42  1  0  0  0  0
 41156  1  0  0  0  0
 41157  1  0  0  0  0
 42 43  1  0  0  0  0
 42158  1  0  0  0  0
 42159  1  0  0  0  0
 43 44  1  0  0  0  0
 43160  1  0  0  0  0
 43161  1  0  0  0  0
 44 45  1  0  0  0  0
 44162  1  0  0  0  0
 44163  1  0  0  0  0
 45 46  1  0  0  0  0
 45164  1  0  0  0  0
 45165  1  0  0  0  0
 46 47  1  0  0  0  0
 46166  1  0  0  0  0
 46167  1  0  0  0  0
 47 48  1  0  0  0  0
 47168  1  0  0  0  0
 47169  1  0  0  0  0
 48 49  1  0  0  0  0
 48170  1  0  0  0  0
 48171  1  0  0  0  0
 49 50  1  0  0  0  0
 49172  1  0  0  0  0
 49173  1  0  0  0  0
 50 51  1  0  0  0  0
 50174  1  0  0  0  0
 50175  1  0  0  0  0
 51 52  1  0  0  0  0
 51176  1  0  0  0  0
 51177  1  0  0  0  0
 52 53  1  0  0  0  0
 52178  1  0  0  0  0
 52179  1  0  0  0  0
 53 54  1  0  0  0  0
 53180  1  0  0  0  0
 53181  1  0  0  0  0
 54 55  1  0  0  0  0
 54182  1  0  0  0  0
 54183  1  0  0  0  0
 55 56  1  0  0  0  0
 55184  1  0  0  0  0
 55185  1  0  0  0  0
 56 57  1  0  0  0  0
 56186  1  0  0  0  0
 56187  1  0  0  0  0
 57 58  1  0  0  0  0
 57188  1  0  0  0  0
 57189  1  0  0  0  0
 58 59  1  0  0  0  0
 58190  1  0  0  0  0
 58191  1  0  0  0  0
 59 60  1  0  0  0  0
 59192  1  0  0  0  0
 59193  1  0  0  0  0
 60 61  1  0  0  0  0
 60194  1  0  0  0  0
 60195  1  0  0  0  0
 61 62  1  0  0  0  0
 61196  1  0  0  0  0
 61197  1  0  0  0  0
 62 63  1  0  0  0  0
 62198  1  0  0  0  0
 62199  1  0  0  0  0
 63 64  1  0  0  0  0
 63200  1  0  0  0  0
 63201  1  0  0  0  0
 64 65  1  0  0  0  0
 64202  1  0  0  0  0
 64203  1  0  0  0  0
 65 66  1  0  0  0  0
 65204  1  0  0  0  0
 65205  1  0  0  0  0
 66 67  1  0  0  0  0
 66206  1  0  0  0  0
 66207  1  0  0  0  0
 67 68  1  0  0  0  0
 67208  1  0  0  0  0
 67209  1  0  0  0  0
 68 69  1  0  0  0  0
 68210  1  0  0  0  0
 68211  1  0  0  0  0
 69 70  1  0  0  0  0
 69212  1  0  0  0  0
 69213  1  0  0  0  0
 70 71  1  0  0  0  0
 70214  1  0  0  0  0
 70215  1  0  0  0  0
 71 72  1  0  0  0  0
 71216  1  0  0  0  0
 71217  1  0  0  0  0
 72 73  1  0  0  0  0
 72218  1  0  0  0  0
 72219  1  0  0  0  0
 73 74  1  0  0  0  0
 73220  1  0  0  0  0
 73221  1  0  0  0  0
 74 75  1  0  0  0  0
 74222  1  0  0  0  0
 74223  1  0  0  0  0
 75 76  1  0  0  0  0
 75224  1  0  0  0  0
 75225  1  0  0  0  0
 76 77  1  0  0  0  0
 76226  1  0  0  0  0
 76227  1  0  0  0  0
 77 78  1  0  0  0  0
 77228  1  0  0  0  0
 77229  1  0  0  0  0
 78 79  1  0  0  0  0
 78230  1  0  0  0  0
 78231  1  0  0  0  0
 79232  1  0  0  0  0
 79233  1  0  0  0  0
 79234  1  0  0  0  0
M  END
$$$$
