
 OpenBabel04232216493D

 74 75  0  0  1  0  0  0  0  0999 V2000
    3.1723    2.7949    4.8092 C   0  0  0  0  0  0  0  0  0  0  0  0
    3.7094    1.9657    3.6482 C   0  0  3  0  0  0  0  0  0  0  0  0
    5.1506    2.5519    3.2850 C   0  0  0  0  0  0  0  0  0  0  0  0
    6.4342    1.7464    3.4675 C   0  0  0  0  0  0  0  0  0  0  0  0
    6.6901    1.2900    4.9014 C   0  0  0  0  0  0  0  0  0  0  0  0
    7.1496   -0.1733    4.9378 C   0  0  0  0  0  0  0  0  0  0  0  0
    6.8356   -0.8706    6.2656 C   0  0  0  0  0  0  0  0  0  0  0  0
    5.9459   -2.1156    6.0632 C   0  0  0  0  0  0  0  0  0  0  0  0
    4.4613   -1.7495    6.0915 C   0  0  0  0  0  0  0  0  0  0  0  0
    3.5467   -2.3503    5.0195 C   0  0  0  0  0  0  0  0  0  0  0  0
    2.1550   -1.6210    4.9563 C   0  0  3  0  0  0  0  0  0  0  0  0
    0.9290   -2.1305    6.0474 C   0  0  0  0  0  0  0  0  0  0  0  0
    0.3254   -2.0843    7.7178 C   0  0  0  0  0  0  0  0  0  0  0  0
   -0.6316   -2.8235    7.9921 O   0  0  0  0  0  0  0  0  0  0  0  0
    0.8577   -1.2051    8.9011 C   0  0  0  0  0  0  0  0  0  0  0  0
    2.0712   -0.8578    8.4071 C   0  0  0  0  0  0  0  0  0  0  0  0
    2.7924    0.2385    8.8728 C   0  0  0  0  0  0  0  0  0  0  0  0
    2.5009    1.3647    8.1664 C   0  0  0  0  0  0  0  0  0  0  0  0
    2.6748    2.6192    8.6994 N   0  0  0  0  0  0  0  0  0  0  0  0
    1.4820    3.5235    8.7432 C   0  0  0  0  0  0  0  0  0  0  0  0
    0.8711    3.3430   10.0967 C   0  0  0  0  0  0  0  0  0  0  0  0
    0.2870    4.3394   11.1478 C   0  0  0  0  0  0  0  0  0  0  0  0
   -0.0088    3.2742   12.2036 C   0  0  0  0  0  0  0  0  0  0  0  0
   -0.4204    2.6120   13.4645 C   0  0  0  0  0  0  0  0  0  0  0  0
   -0.2280    0.9315   13.0711 C   0  0  0  0  0  0  0  0  0  0  0  0
    0.0777    0.4836   11.3976 C   0  0  0  0  0  0  0  0  0  0  0  0
    0.3252   -0.9893   10.5292 C   0  0  0  0  0  0  0  0  0  0  0  0
    2.3723   -0.1258    4.5038 C   0  0  0  0  0  0  0  0  0  0  0  0
    3.4846    0.4551    3.9128 C   0  0  0  0  0  0  0  0  0  0  0  0
    3.3127    3.8632    4.6378 H   0  0  0  0  0  0  0  0  0  0  0  0
    3.7087    2.5255    5.7231 H   0  0  0  0  0  0  0  0  0  0  0  0
    2.1066    2.6282    4.9574 H   0  0  0  0  0  0  0  0  0  0  0  0
    3.1018    2.2004    2.7518 H   0  0  0  0  0  0  0  0  0  0  0  0
    5.2956    3.4990    3.8350 H   0  0  0  0  0  0  0  0  0  0  0  0
    5.1301    2.8736    2.2331 H   0  0  0  0  0  0  0  0  0  0  0  0
    7.2775    2.3749    3.1446 H   0  0  0  0  0  0  0  0  0  0  0  0
    6.4368    0.9108    2.7509 H   0  0  0  0  0  0  0  0  0  0  0  0
    5.7949    1.4216    5.5047 H   0  0  0  0  0  0  0  0  0  0  0  0
    7.4617    1.9120    5.3634 H   0  0  0  0  0  0  0  0  0  0  0  0
    8.2315   -0.2026    4.7590 H   0  0  0  0  0  0  0  0  0  0  0  0
    6.6898   -0.7269    4.1117 H   0  0  0  0  0  0  0  0  0  0  0  0
    6.3717   -0.1819    6.9841 H   0  0  0  0  0  0  0  0  0  0  0  0
    7.7806   -1.1861    6.7203 H   0  0  0  0  0  0  0  0  0  0  0  0
    6.1258   -2.7872    6.9109 H   0  0  0  0  0  0  0  0  0  0  0  0
    6.2330   -2.6639    5.1602 H   0  0  0  0  0  0  0  0  0  0  0  0
    4.3710   -0.6605    6.0834 H   0  0  0  0  0  0  0  0  0  0  0  0
    4.0856   -2.0967    7.0514 H   0  0  0  0  0  0  0  0  0  0  0  0
    3.4137   -3.4229    5.1549 H   0  0  0  0  0  0  0  0  0  0  0  0
    4.0392   -2.2571    4.0376 H   0  0  0  0  0  0  0  0  0  0  0  0
    1.7246   -2.0302    4.0198 H   0  0  0  0  0  0  0  0  0  0  0  0
    0.9939   -3.2256    5.9064 H   0  0  0  0  0  0  0  0  0  0  0  0
    0.0138   -1.8263    5.5104 H   0  0  0  0  0  0  0  0  0  0  0  0
    2.4014   -1.1398    7.4496 H   0  0  0  0  0  0  0  0  0  0  0  0
    3.3215    0.1844    9.8013 H   0  0  0  0  0  0  0  0  0  0  0  0
    1.9418    1.3472    7.2518 H   0  0  0  0  0  0  0  0  0  0  0  0
    3.0579    2.4703    9.6370 H   0  0  0  0  0  0  0  0  0  0  0  0
    0.7570    3.2056    7.9755 H   0  0  0  0  0  0  0  0  0  0  0  0
    1.7804    4.5447    8.5322 H   0  0  0  0  0  0  0  0  0  0  0  0
    1.6662    2.8703   10.6730 H   0  0  0  0  0  0  0  0  0  0  0  0
    0.0999    2.5734    9.9200 H   0  0  0  0  0  0  0  0  0  0  0  0
   -0.6122    4.8414   10.7778 H   0  0  0  0  0  0  0  0  0  0  0  0
    1.0316    5.0801   11.4553 H   0  0  0  0  0  0  0  0  0  0  0  0
    1.0052    2.8795   12.3135 H   0  0  0  0  0  0  0  0  0  0  0  0
   -0.7881    2.7767   11.6323 H   0  0  0  0  0  0  0  0  0  0  0  0
   -1.4486    2.8622   13.7595 H   0  0  0  0  0  0  0  0  0  0  0  0
    0.2284    2.9029   14.3102 H   0  0  0  0  0  0  0  0  0  0  0  0
    0.6256    0.6170   13.6875 H   0  0  0  0  0  0  0  0  0  0  0  0
   -1.1320    0.4519   13.4607 H   0  0  0  0  0  0  0  0  0  0  0  0
    1.0135    1.0043   11.2087 H   0  0  0  0  0  0  0  0  0  0  0  0
   -0.7746    0.9234   10.8777 H   0  0  0  0  0  0  0  0  0  0  0  0
   -0.6068   -1.5633   10.6222 H   0  0  0  0  0  0  0  0  0  0  0  0
    1.0819   -1.5209   11.1283 H   0  0  0  0  0  0  0  0  0  0  0  0
    1.5164    0.4939    4.6708 H   0  0  0  0  0  0  0  0  0  0  0  0
    4.3366   -0.1621    3.6354 H   0  0  0  0  0  0  0  0  0  0  0  0
  1  2  1  0  0  0  0
  1 30  1  0  0  0  0
  1 31  1  0  0  0  0
  1 32  1  0  0  0  0
  2  3  1  0  0  0  0
  2 29  1  0  0  0  0
  2 33  1  0  0  0  0
  3  4  1  0  0  0  0
  3 34  1  0  0  0  0
  3 35  1  0  0  0  0
  4  5  1  0  0  0  0
  4 36  1  0  0  0  0
  4 37  1  0  0  0  0
  5  6  1  0  0  0  0
  5 38  1  0  0  0  0
  5 39  1  0  0  0  0
  6  7  1  0  0  0  0
  6 40  1  0  0  0  0
  6 41  1  0  0  0  0
  7  8  1  0  0  0  0
  7 42  1  0  0  0  0
  7 43  1  0  0  0  0
  8  9  1  0  0  0  0
  8 44  1  0  0  0  0
  8 45  1  0  0  0  0
  9 10  1  0  0  0  0
  9 46  1  0  0  0  0
  9 47  1  0  0  0  0
 10 11  1  0  0  0  0
 10 48  1  0  0  0  0
 10 49  1  0  0  0  0
 11 12  1  0  0  0  0
 11 28  1  0  0  0  0
 11 50  1  0  0  0  0
 12 13  1  0  0  0  0
 12 51  1  0  0  0  0
 12 52  1  0  0  0  0
 13 14  2  0  0  0  0
 13 15  1  0  0  0  0
 15 16  2  3  0  0  0
 15 27  1  0  0  0  0
 16 17  1  0  0  0  0
 16 53  1  0  0  0  0
 17 18  2  3  0  0  0
 17 54  1  0  0  0  0
 18 19  1  0  0  0  0
 18 55  1  0  0  0  0
 19 20  1  0  0  0  0
 19 56  1  0  0  0  0
 20 21  1  0  0  0  0
 20 57  1  0  0  0  0
 20 58  1  0  0  0  0
 21 22  1  0  0  0  0
 21 59  1  0  0  0  0
 21 60  1  0  0  0  0
 22 23  1  0  0  0  0
 22 61  1  0  0  0  0
 22 62  1  0  0  0  0
 23 24  1  0  0  0  0
 23 63  1  0  0  0  0
 23 64  1  0  0  0  0
 24 25  1  0  0  0  0
 24 65  1  0  0  0  0
 24 66  1  0  0  0  0
 25 26  1  0  0  0  0
 25 67  1  0  0  0  0
 25 68  1  0  0  0  0
 26 27  1  0  0  0  0
 26 69  1  0  0  0  0
 26 70  1  0  0  0  0
 27 71  1  0  0  0  0
 27 72  1  0  0  0  0
 28 29  2  3  0  0  0
 28 73  1  0  0  0  0
 29 74  1  0  0  0  0
M  END
$$$$
