
 OpenBabel04232216483D

 65 66  0  0  0  0  0  0  0  0999 V2000
    2.0311    1.5071    4.7561 C   0  0  0  0  0  0  0  0  0  0  0  0
    3.3864    1.4269    4.1239 C   0  0  0  0  0  0  0  0  0  0  0  0
    4.0065    2.6817    3.7024 C   0  0  0  0  0  0  0  0  0  0  0  0
    5.0099    3.2455    4.4052 C   0  0  0  0  0  0  0  0  0  0  0  0
    6.2967    2.5455    4.7081 C   0  0  0  0  0  0  0  0  0  0  0  0
    7.0460    2.8886    5.9181 N   0  0  0  0  0  0  0  0  0  0  0  0
    6.6516    3.9127    6.9220 C   0  0  0  0  0  0  0  0  0  0  0  0
    6.0492    3.2122    8.1488 C   0  0  0  0  0  0  0  0  0  0  0  0
    7.8502    4.7687    7.3560 C   0  0  0  0  0  0  0  0  0  0  0  0
    6.8253    1.5640    3.8889 C   0  0  0  0  0  0  0  0  0  0  0  0
    8.0636    0.9289    4.2400 N   0  0  0  0  0  0  0  0  0  0  0  0
    9.2929    1.4601    3.6054 C   0  0  0  0  0  0  0  0  0  0  0  0
    9.6285    0.8048    2.2710 C   0  0  0  0  0  0  0  0  0  0  0  0
   11.0466    1.2322    1.8979 C   0  0  0  0  0  0  0  0  0  0  0  0
   11.5285    0.6367    0.5871 C   0  0  0  0  0  0  0  0  0  0  0  0
   12.9520    1.1190    0.3149 C   0  0  0  0  0  0  0  0  0  0  0  0
   13.4721    0.5462   -0.9943 C   0  0  0  0  0  0  0  0  0  0  0  0
   14.8217    1.0491   -1.2284 N   0  0  0  0  0  0  0  0  0  0  0  0
   15.3582    0.5060   -2.4723 C   0  0  0  0  0  0  0  0  0  0  0  0
   16.7752    1.0278   -2.6920 C   0  0  0  0  0  0  0  0  0  0  0  0
   17.3379    0.4763   -3.9972 C   0  0  0  0  0  0  0  0  0  0  0  0
   18.7026    0.9462   -4.1999 N   0  0  0  0  0  0  0  0  0  0  0  0
    8.1866    0.7893    5.6568 C   0  0  0  0  0  0  0  0  0  0  0  0
    8.0462    1.9491    6.3266 C   0  0  0  0  0  0  0  0  0  0  0  0
    6.1856    0.8516    2.7949 C   0  0  0  0  0  0  0  0  0  0  0  0
    5.0614    0.1289    2.9045 C   0  0  0  0  0  0  0  0  0  0  0  0
    4.0091    0.2547    3.8924 C   0  0  0  0  0  0  0  0  0  0  0  0
    1.2742    1.3420    3.9779 H   0  0  0  0  0  0  0  0  0  0  0  0
    1.8481    2.4772    5.2036 H   0  0  0  0  0  0  0  0  0  0  0  0
    1.9095    0.7392    5.5206 H   0  0  0  0  0  0  0  0  0  0  0  0
    3.5222    3.2339    2.8991 H   0  0  0  0  0  0  0  0  0  0  0  0
    4.6251    3.4931    5.4026 H   0  0  0  0  0  0  0  0  0  0  0  0
    5.9152    4.6105    6.5123 H   0  0  0  0  0  0  0  0  0  0  0  0
    6.7952    2.5926    8.6620 H   0  0  0  0  0  0  0  0  0  0  0  0
    5.2204    2.5562    7.8630 H   0  0  0  0  0  0  0  0  0  0  0  0
    5.6794    3.9421    8.8751 H   0  0  0  0  0  0  0  0  0  0  0  0
    8.6318    4.1746    7.8428 H   0  0  0  0  0  0  0  0  0  0  0  0
    7.5381    5.5298    8.0794 H   0  0  0  0  0  0  0  0  0  0  0  0
    8.3001    5.2757    6.4964 H   0  0  0  0  0  0  0  0  0  0  0  0
   10.1365    1.2598    4.2811 H   0  0  0  0  0  0  0  0  0  0  0  0
    9.2409    2.5514    3.4932 H   0  0  0  0  0  0  0  0  0  0  0  0
    8.9310    1.1217    1.4888 H   0  0  0  0  0  0  0  0  0  0  0  0
    9.5668   -0.2872    2.3476 H   0  0  0  0  0  0  0  0  0  0  0  0
   11.7367    0.9340    2.6972 H   0  0  0  0  0  0  0  0  0  0  0  0
   11.0873    2.3274    1.8350 H   0  0  0  0  0  0  0  0  0  0  0  0
   10.8655    0.9402   -0.2312 H   0  0  0  0  0  0  0  0  0  0  0  0
   11.5080   -0.4582    0.6405 H   0  0  0  0  0  0  0  0  0  0  0  0
   13.6072    0.8183    1.1434 H   0  0  0  0  0  0  0  0  0  0  0  0
   12.9676    2.2164    0.2776 H   0  0  0  0  0  0  0  0  0  0  0  0
   12.8094    0.8502   -1.8126 H   0  0  0  0  0  0  0  0  0  0  0  0
   13.4734   -0.5487   -0.9403 H   0  0  0  0  0  0  0  0  0  0  0  0
   15.4275    0.7896   -0.4493 H   0  0  0  0  0  0  0  0  0  0  0  0
   14.7226    0.8103   -3.3130 H   0  0  0  0  0  0  0  0  0  0  0  0
   15.3699   -0.5903   -2.4333 H   0  0  0  0  0  0  0  0  0  0  0  0
   17.4163    0.7297   -1.8522 H   0  0  0  0  0  0  0  0  0  0  0  0
   16.7677    2.1254   -2.7207 H   0  0  0  0  0  0  0  0  0  0  0  0
   16.7130    0.7902   -4.8404 H   0  0  0  0  0  0  0  0  0  0  0  0
   17.3351   -0.6192   -3.9729 H   0  0  0  0  0  0  0  0  0  0  0  0
   18.7153    1.9650   -4.2444 H   0  0  0  0  0  0  0  0  0  0  0  0
   19.0465    0.6130   -5.0984 H   0  0  0  0  0  0  0  0  0  0  0  0
    7.3763    0.0715    5.8640 H   0  0  0  0  0  0  0  0  0  0  0  0
    8.9610    2.5331    6.4323 H   0  0  0  0  0  0  0  0  0  0  0  0
    6.8042    0.6783    1.9207 H   0  0  0  0  0  0  0  0  0  0  0  0
    4.8517   -0.6151    2.1402 H   0  0  0  0  0  0  0  0  0  0  0  0
    3.5882   -0.6747    4.2680 H   0  0  0  0  0  0  0  0  0  0  0  0
  1  2  1  0  0  0  0
  1 28  1  0  0  0  0
  1 29  1  0  0  0  0
  1 30  1  0  0  0  0
  2  3  1  0  0  0  0
  2 27  2  0  0  0  0
  3  4  2  0  0  0  0
  3 31  1  0  0  0  0
  4  5  1  0  0  0  0
  4 32  1  0  0  0  0
  5  6  1  0  0  0  0
  5 10  2  0  0  0  0
  6  7  1  0  0  0  0
  6 24  1  0  0  0  0
  7  8  1  0  0  0  0
  7  9  1  0  0  0  0
  7 33  1  0  0  0  0
  8 34  1  0  0  0  0
  8 35  1  0  0  0  0
  8 36  1  0  0  0  0
  9 37  1  0  0  0  0
  9 38  1  0  0  0  0
  9 39  1  0  0  0  0
 10 11  1  0  0  0  0
 10 25  1  0  0  0  0
 11 12  1  0  0  0  0
 11 23  1  0  0  0  0
 12 13  1  0  0  0  0
 12 40  1  0  0  0  0
 12 41  1  0  0  0  0
 13 14  1  0  0  0  0
 13 42  1  0  0  0  0
 13 43  1  0  0  0  0
 14 15  1  0  0  0  0
 14 44  1  0  0  0  0
 14 45  1  0  0  0  0
 15 16  1  0  0  0  0
 15 46  1  0  0  0  0
 15 47  1  0  0  0  0
 16 17  1  0  0  0  0
 16 48  1  0  0  0  0
 16 49  1  0  0  0  0
 17 18  1  0  0  0  0
 17 50  1  0  0  0  0
 17 51  1  0  0  0  0
 18 19  1  0  0  0  0
 18 52  1  0  0  0  0
 19 20  1  0  0  0  0
 19 53  1  0  0  0  0
 19 54  1  0  0  0  0
 20 21  1  0  0  0  0
 20 55  1  0  0  0  0
 20 56  1  0  0  0  0
 21 22  1  0  0  0  0
 21 57  1  0  0  0  0
 21 58  1  0  0  0  0
 22 59  1  0  0  0  0
 22 60  1  0  0  0  0
 23 24  2  0  0  0  0
 23 61  1  0  0  0  0
 24 62  1  0  0  0  0
 25 26  2  0  0  0  0
 25 63  1  0  0  0  0
 26 27  1  0  0  0  0
 26 64  1  0  0  0  0
 27 65  1  0  0  0  0
M  END
$$$$
