
 OpenBabel04232217013D

240239  0  0  0  0  0  0  0  0999 V2000
    2.8510   -0.5110   -1.2714 O   0  0  0  0  0  0  0  0  0  0  0  0
    2.4124   -0.0283   -0.0084 C   0  0  0  0  0  0  0  0  0  0  0  0
    2.9428   -0.9241    1.0961 C   0  0  0  0  0  0  0  0  0  0  0  0
    4.4681   -0.9236    1.0964 C   0  0  0  0  0  0  0  0  0  0  0  0
    4.9580   -1.7871    2.1756 N   0  0  0  0  0  0  0  0  0  0  0  0
    6.4169   -1.8028    2.1656 C   0  0  0  0  0  0  0  0  0  0  0  0
    6.9203   -2.7164    3.2749 C   0  0  0  0  0  0  0  0  0  0  0  0
    8.4443   -2.7307    3.2883 C   0  0  0  0  0  0  0  0  0  0  0  0
    8.9621   -3.6381    4.3931 C   0  0  0  0  0  0  0  0  0  0  0  0
   10.4840   -3.6421    4.3995 C   0  0  0  0  0  0  0  0  0  0  0  0
   11.0026   -4.5490    5.5030 C   0  0  0  0  0  0  0  0  0  0  0  0
   12.5218   -4.5521    5.5099 C   0  0  0  0  0  0  0  0  0  0  0  0
   13.0364   -5.4583    6.6150 C   0  0  0  0  0  0  0  0  0  0  0  0
   14.5545   -5.4633    6.6212 C   0  0  0  0  0  0  0  0  0  0  0  0
   15.0667   -6.3698    7.7263 C   0  0  0  0  0  0  0  0  0  0  0  0
   16.5842   -6.3758    7.7302 C   0  0  0  0  0  0  0  0  0  0  0  0
   17.0960   -7.2831    8.8337 C   0  0  0  0  0  0  0  0  0  0  0  0
   18.6134   -7.2895    8.8353 C   0  0  0  0  0  0  0  0  0  0  0  0
   19.1249   -8.1954    9.9395 C   0  0  0  0  0  0  0  0  0  0  0  0
   20.6420   -8.2000    9.9417 C   0  0  0  0  0  0  0  0  0  0  0  0
   21.1531   -9.1071   11.0449 C   0  0  0  0  0  0  0  0  0  0  0  0
   22.6700   -9.1109   11.0478 C   0  0  0  0  0  0  0  0  0  0  0  0
   23.1804  -10.0157   12.1531 C   0  0  0  0  0  0  0  0  0  0  0  0
   24.6972  -10.0212   12.1551 C   0  0  0  0  0  0  0  0  0  0  0  0
   25.2073  -10.9258   13.2606 C   0  0  0  0  0  0  0  0  0  0  0  0
   26.7240  -10.9292   13.2644 C   0  0  0  0  0  0  0  0  0  0  0  0
   27.2343  -11.8353   14.3685 C   0  0  0  0  0  0  0  0  0  0  0  0
   28.7511  -11.8385   14.3723 C   0  0  0  0  0  0  0  0  0  0  0  0
   29.2616  -12.7443   15.4767 C   0  0  0  0  0  0  0  0  0  0  0  0
   30.7785  -12.7473   15.4808 C   0  0  0  0  0  0  0  0  0  0  0  0
   31.2888  -13.6531   16.5853 C   0  0  0  0  0  0  0  0  0  0  0  0
   32.8057  -13.6568   16.5894 C   0  0  0  0  0  0  0  0  0  0  0  0
   33.3159  -14.5627   17.6941 C   0  0  0  0  0  0  0  0  0  0  0  0
   34.8329  -14.5679   17.6973 C   0  0  0  0  0  0  0  0  0  0  0  0
   35.3436  -15.4739   18.8019 C   0  0  0  0  0  0  0  0  0  0  0  0
   36.8609  -15.4775   18.8063 C   0  0  0  0  0  0  0  0  0  0  0  0
   37.3723  -16.3847   19.9097 C   0  0  0  0  0  0  0  0  0  0  0  0
   38.8899  -16.3873   19.9155 C   0  0  0  0  0  0  0  0  0  0  0  0
   39.4015  -17.2933   21.0204 C   0  0  0  0  0  0  0  0  0  0  0  0
   40.9194  -17.2983   21.0267 C   0  0  0  0  0  0  0  0  0  0  0  0
   41.4301  -18.2034   22.1335 C   0  0  0  0  0  0  0  0  0  0  0  0
   42.9482  -18.2096   22.1417 C   0  0  0  0  0  0  0  0  0  0  0  0
   43.4609  -19.1148   23.2489 C   0  0  0  0  0  0  0  0  0  0  0  0
   44.9795  -19.1173   23.2531 C   0  0  0  0  0  0  0  0  0  0  0  0
   45.5064  -20.0200   24.3567 C   0  0  0  0  0  0  0  0  0  0  0  0
   47.0263  -20.0082   24.3428 C   0  0  0  0  0  0  0  0  0  0  0  0
   47.5106  -20.8782   25.4040 N   0  0  0  0  0  0  0  0  0  0  0  0
   48.9689  -20.8868   25.4143 C   0  0  0  0  0  0  0  0  0  0  0  0
   49.4433  -21.7976   26.5350 C   0  0  0  0  0  0  0  0  0  0  0  0
   50.9016  -21.8027   26.5469 N   0  0  0  0  0  0  0  0  0  0  0  0
   51.3856  -22.6729   27.6083 C   0  0  0  0  0  0  0  0  0  0  0  0
   52.9061  -22.6625   27.5941 C   0  0  0  0  0  0  0  0  0  0  0  0
   53.4325  -23.5644   28.6988 C   0  0  0  0  0  0  0  0  0  0  0  0
   54.9510  -23.5654   28.7042 C   0  0  0  0  0  0  0  0  0  0  0  0
   55.4636  -24.4701   29.8117 C   0  0  0  0  0  0  0  0  0  0  0  0
   56.9816  -24.4732   29.8223 C   0  0  0  0  0  0  0  0  0  0  0  0
   57.4920  -25.3766   30.9307 C   0  0  0  0  0  0  0  0  0  0  0  0
   59.0099  -25.3810   30.9384 C   0  0  0  0  0  0  0  0  0  0  0  0
   59.5212  -26.2831   32.0466 C   0  0  0  0  0  0  0  0  0  0  0  0
   61.0389  -26.2848   32.0537 C   0  0  0  0  0  0  0  0  0  0  0  0
   61.5504  -27.1869   33.1615 C   0  0  0  0  0  0  0  0  0  0  0  0
   63.0678  -27.1872   33.1688 C   0  0  0  0  0  0  0  0  0  0  0  0
   63.5790  -28.0903   34.2756 C   0  0  0  0  0  0  0  0  0  0  0  0
   65.0963  -28.0902   34.2828 C   0  0  0  0  0  0  0  0  0  0  0  0
   65.6073  -28.9931   35.3898 C   0  0  0  0  0  0  0  0  0  0  0  0
   67.1245  -28.9929   35.3970 C   0  0  0  0  0  0  0  0  0  0  0  0
   67.6359  -29.8954   36.5042 C   0  0  0  0  0  0  0  0  0  0  0  0
   69.1532  -29.8955   36.5114 C   0  0  0  0  0  0  0  0  0  0  0  0
   69.6648  -30.7981   37.6189 C   0  0  0  0  0  0  0  0  0  0  0  0
   71.1823  -30.8005   37.6257 C   0  0  0  0  0  0  0  0  0  0  0  0
   71.6945  -31.7034   38.7333 C   0  0  0  0  0  0  0  0  0  0  0  0
   73.2129  -31.7061   38.7407 C   0  0  0  0  0  0  0  0  0  0  0  0
   73.7266  -32.6089   39.8486 C   0  0  0  0  0  0  0  0  0  0  0  0
   75.2458  -32.6123   39.8567 C   0  0  0  0  0  0  0  0  0  0  0  0
   75.7635  -33.5152   40.9645 C   0  0  0  0  0  0  0  0  0  0  0  0
   77.2846  -33.5170   40.9746 C   0  0  0  0  0  0  0  0  0  0  0  0
   77.8067  -34.4204   42.0827 C   0  0  0  0  0  0  0  0  0  0  0  0
   79.3301  -34.4274   42.0971 C   0  0  0  0  0  0  0  0  0  0  0  0
   79.8500  -35.3318   43.2089 C   0  0  0  0  0  0  0  0  0  0  0  0
   81.3750  -35.3484   43.2331 C   0  0  0  0  0  0  0  0  0  0  0  0
   81.8904  -36.2487   44.3415 C   0  0  0  0  0  0  0  0  0  0  0  0
    2.5157    0.1024   -1.9448 H   0  0  0  0  0  0  0  0  0  0  0  0
    1.3179   -0.0239   -0.0008 H   0  0  0  0  0  0  0  0  0  0  0  0
    2.7690    0.9994    0.1181 H   0  0  0  0  0  0  0  0  0  0  0  0
    2.5779   -1.9472    0.9432 H   0  0  0  0  0  0  0  0  0  0  0  0
    2.5628   -0.5751    2.0642 H   0  0  0  0  0  0  0  0  0  0  0  0
    4.8342    0.0989    1.2443 H   0  0  0  0  0  0  0  0  0  0  0  0
    4.8461   -1.2861    0.1330 H   0  0  0  0  0  0  0  0  0  0  0  0
    4.6037   -2.7278    2.0052 H   0  0  0  0  0  0  0  0  0  0  0  0
    6.8044   -0.7895    2.3272 H   0  0  0  0  0  0  0  0  0  0  0  0
    6.7932   -2.1594    1.1984 H   0  0  0  0  0  0  0  0  0  0  0  0
    6.5441   -3.7366    3.1258 H   0  0  0  0  0  0  0  0  0  0  0  0
    6.5467   -2.3705    4.2467 H   0  0  0  0  0  0  0  0  0  0  0  0
    8.8237   -1.7121    3.4374 H   0  0  0  0  0  0  0  0  0  0  0  0
    8.8213   -3.0772    2.3182 H   0  0  0  0  0  0  0  0  0  0  0  0
    8.5889   -4.6576    4.2452 H   0  0  0  0  0  0  0  0  0  0  0  0
    8.5891   -3.2922    5.3652 H   0  0  0  0  0  0  0  0  0  0  0  0
   10.8597   -2.6224    4.5495 H   0  0  0  0  0  0  0  0  0  0  0  0
   10.8600   -3.9863    3.4283 H   0  0  0  0  0  0  0  0  0  0  0  0
   10.6296   -5.5696    5.3531 H   0  0  0  0  0  0  0  0  0  0  0  0
   10.6273   -4.2060    6.4751 H   0  0  0  0  0  0  0  0  0  0  0  0
   12.8973   -3.5323    5.6598 H   0  0  0  0  0  0  0  0  0  0  0  0
   12.8994   -4.8972    4.5393 H   0  0  0  0  0  0  0  0  0  0  0  0
   12.6611   -6.4784    6.4665 H   0  0  0  0  0  0  0  0  0  0  0  0
   12.6610   -5.1129    7.5862 H   0  0  0  0  0  0  0  0  0  0  0  0
   14.9314   -4.4440    6.7706 H   0  0  0  0  0  0  0  0  0  0  0  0
   14.9312   -5.8095    5.6508 H   0  0  0  0  0  0  0  0  0  0  0  0
   14.6898   -7.3893    7.5783 H   0  0  0  0  0  0  0  0  0  0  0  0
   14.6923   -6.0234    8.6975 H   0  0  0  0  0  0  0  0  0  0  0  0
   16.9618   -5.3567    7.8797 H   0  0  0  0  0  0  0  0  0  0  0  0
   16.9593   -6.7214    6.7589 H   0  0  0  0  0  0  0  0  0  0  0  0
   16.7185   -8.3023    8.6853 H   0  0  0  0  0  0  0  0  0  0  0  0
   16.7229   -6.9370    9.8055 H   0  0  0  0  0  0  0  0  0  0  0  0
   18.9916   -6.2703    8.9828 H   0  0  0  0  0  0  0  0  0  0  0  0
   18.9869   -7.6368    7.8640 H   0  0  0  0  0  0  0  0  0  0  0  0
   18.7482   -9.2150    9.7914 H   0  0  0  0  0  0  0  0  0  0  0  0
   18.7510   -7.8490   10.9109 H   0  0  0  0  0  0  0  0  0  0  0  0
   21.0189   -7.1807   10.0912 H   0  0  0  0  0  0  0  0  0  0  0  0
   21.0166   -8.5453    8.9702 H   0  0  0  0  0  0  0  0  0  0  0  0
   20.7771  -10.1268   10.8950 H   0  0  0  0  0  0  0  0  0  0  0  0
   20.7781   -8.7624   12.0164 H   0  0  0  0  0  0  0  0  0  0  0  0
   23.0465   -8.0912   11.1957 H   0  0  0  0  0  0  0  0  0  0  0  0
   23.0451   -9.4578   10.0771 H   0  0  0  0  0  0  0  0  0  0  0  0
   22.8029  -11.0352   12.0063 H   0  0  0  0  0  0  0  0  0  0  0  0
   22.8064   -9.6677   13.1239 H   0  0  0  0  0  0  0  0  0  0  0  0
   25.0747   -9.0017   12.3018 H   0  0  0  0  0  0  0  0  0  0  0  0
   25.0713  -10.3694   11.1844 H   0  0  0  0  0  0  0  0  0  0  0  0
   24.8311  -11.9457   13.1127 H   0  0  0  0  0  0  0  0  0  0  0  0
   24.8317  -10.5789   14.2312 H   0  0  0  0  0  0  0  0  0  0  0  0
   27.0998   -9.9095   13.4137 H   0  0  0  0  0  0  0  0  0  0  0  0
   27.0998  -11.2746   12.2933 H   0  0  0  0  0  0  0  0  0  0  0  0
   26.8585  -12.8551   14.2191 H   0  0  0  0  0  0  0  0  0  0  0  0
   26.8585  -11.4899   15.3395 H   0  0  0  0  0  0  0  0  0  0  0  0
   29.1269  -10.8187   14.5212 H   0  0  0  0  0  0  0  0  0  0  0  0
   29.1268  -12.1843   13.4013 H   0  0  0  0  0  0  0  0  0  0  0  0
   28.8859  -13.7641   15.3276 H   0  0  0  0  0  0  0  0  0  0  0  0
   28.8857  -12.3986   16.4476 H   0  0  0  0  0  0  0  0  0  0  0  0
   31.1541  -11.7274   15.6299 H   0  0  0  0  0  0  0  0  0  0  0  0
   31.1543  -13.0929   14.5099 H   0  0  0  0  0  0  0  0  0  0  0  0
   30.9127  -14.6728   16.4363 H   0  0  0  0  0  0  0  0  0  0  0  0
   30.9129  -13.3072   17.5561 H   0  0  0  0  0  0  0  0  0  0  0  0
   33.1817  -12.6371   16.7383 H   0  0  0  0  0  0  0  0  0  0  0  0
   33.1813  -14.0028   15.6185 H   0  0  0  0  0  0  0  0  0  0  0  0
   32.9387  -15.5821   17.5458 H   0  0  0  0  0  0  0  0  0  0  0  0
   32.9409  -14.2160   18.6649 H   0  0  0  0  0  0  0  0  0  0  0  0
   35.2098  -13.5484   17.8456 H   0  0  0  0  0  0  0  0  0  0  0  0
   35.2076  -14.9144   16.7263 H   0  0  0  0  0  0  0  0  0  0  0  0
   34.9676  -16.4936   18.6526 H   0  0  0  0  0  0  0  0  0  0  0  0
   34.9677  -15.1282   19.7727 H   0  0  0  0  0  0  0  0  0  0  0  0
   37.2363  -14.4577   18.9566 H   0  0  0  0  0  0  0  0  0  0  0  0
   37.2366  -15.8218   17.8349 H   0  0  0  0  0  0  0  0  0  0  0  0
   36.9973  -17.4045   19.7587 H   0  0  0  0  0  0  0  0  0  0  0  0
   36.9953  -16.0409   20.8808 H   0  0  0  0  0  0  0  0  0  0  0  0
   39.2645  -15.3672   20.0651 H   0  0  0  0  0  0  0  0  0  0  0  0
   39.2664  -16.7321   18.9446 H   0  0  0  0  0  0  0  0  0  0  0  0
   39.0251  -18.3128   20.8713 H   0  0  0  0  0  0  0  0  0  0  0  0
   39.0250  -16.9472   21.9909 H   0  0  0  0  0  0  0  0  0  0  0  0
   41.2953  -16.2783   21.1743 H   0  0  0  0  0  0  0  0  0  0  0  0
   41.2953  -17.6453   20.0563 H   0  0  0  0  0  0  0  0  0  0  0  0
   41.0533  -19.2229   21.9851 H   0  0  0  0  0  0  0  0  0  0  0  0
   41.0529  -17.8559   23.1031 H   0  0  0  0  0  0  0  0  0  0  0  0
   43.3240  -17.1896   22.2891 H   0  0  0  0  0  0  0  0  0  0  0  0
   43.3245  -18.5564   21.1714 H   0  0  0  0  0  0  0  0  0  0  0  0
   43.0855  -20.1347   23.1008 H   0  0  0  0  0  0  0  0  0  0  0  0
   43.0849  -18.7675   24.2190 H   0  0  0  0  0  0  0  0  0  0  0  0
   45.3525  -18.0961   23.3981 H   0  0  0  0  0  0  0  0  0  0  0  0
   45.3524  -19.4628   22.2808 H   0  0  0  0  0  0  0  0  0  0  0  0
   45.1326  -21.0414   24.2096 H   0  0  0  0  0  0  0  0  0  0  0  0
   45.1341  -19.6749   25.3300 H   0  0  0  0  0  0  0  0  0  0  0  0
   47.3867  -18.9841   24.4975 H   0  0  0  0  0  0  0  0  0  0  0  0
   47.3902  -20.3540   23.3673 H   0  0  0  0  0  0  0  0  0  0  0  0
   47.1491  -21.8229   25.2636 H   0  0  0  0  0  0  0  0  0  0  0  0
   49.3473  -19.8699   25.5789 H   0  0  0  0  0  0  0  0  0  0  0  0
   49.3560  -21.2429   24.4514 H   0  0  0  0  0  0  0  0  0  0  0  0
   49.0666  -22.8153   26.3699 H   0  0  0  0  0  0  0  0  0  0  0  0
   49.0552  -21.4426   27.4977 H   0  0  0  0  0  0  0  0  0  0  0  0
   51.2596  -20.8569   26.6900 H   0  0  0  0  0  0  0  0  0  0  0  0
   51.0245  -23.6969   27.4533 H   0  0  0  0  0  0  0  0  0  0  0  0
   51.0225  -22.3271   28.5830 H   0  0  0  0  0  0  0  0  0  0  0  0
   53.2802  -21.6411   27.7405 H   0  0  0  0  0  0  0  0  0  0  0  0
   53.2786  -23.0089   26.6217 H   0  0  0  0  0  0  0  0  0  0  0  0
   53.0608  -24.5863   28.5537 H   0  0  0  0  0  0  0  0  0  0  0  0
   53.0585  -23.2189   29.6705 H   0  0  0  0  0  0  0  0  0  0  0  0
   55.3250  -22.5451   28.8529 H   0  0  0  0  0  0  0  0  0  0  0  0
   55.3284  -23.9120   27.7345 H   0  0  0  0  0  0  0  0  0  0  0  0
   55.0900  -25.4908   29.6631 H   0  0  0  0  0  0  0  0  0  0  0  0
   55.0849  -24.1246   30.7816 H   0  0  0  0  0  0  0  0  0  0  0  0
   57.3562  -23.4529   29.9707 H   0  0  0  0  0  0  0  0  0  0  0  0
   57.3610  -24.8206   28.8535 H   0  0  0  0  0  0  0  0  0  0  0  0
   57.1167  -26.3969   30.7840 H   0  0  0  0  0  0  0  0  0  0  0  0
   57.1148  -25.0285   31.9002 H   0  0  0  0  0  0  0  0  0  0  0  0
   59.3857  -24.3608   31.0844 H   0  0  0  0  0  0  0  0  0  0  0  0
   59.3873  -25.7301   29.9693 H   0  0  0  0  0  0  0  0  0  0  0  0
   59.1472  -27.3040   31.9003 H   0  0  0  0  0  0  0  0  0  0  0  0
   59.1437  -25.9352   33.0161 H   0  0  0  0  0  0  0  0  0  0  0  0
   61.4130  -25.2641   32.2006 H   0  0  0  0  0  0  0  0  0  0  0  0
   61.4169  -26.6326   31.0844 H   0  0  0  0  0  0  0  0  0  0  0  0
   61.1774  -28.2080   33.0143 H   0  0  0  0  0  0  0  0  0  0  0  0
   61.1723  -26.8398   34.1309 H   0  0  0  0  0  0  0  0  0  0  0  0
   63.4412  -26.1664   33.3170 H   0  0  0  0  0  0  0  0  0  0  0  0
   63.4464  -27.5336   32.1992 H   0  0  0  0  0  0  0  0  0  0  0  0
   63.2060  -29.1112   34.1278 H   0  0  0  0  0  0  0  0  0  0  0  0
   63.2009  -27.7439   35.2455 H   0  0  0  0  0  0  0  0  0  0  0  0
   65.4694  -27.0694   34.4309 H   0  0  0  0  0  0  0  0  0  0  0  0
   65.4747  -28.4367   33.3132 H   0  0  0  0  0  0  0  0  0  0  0  0
   65.2342  -30.0140   35.2418 H   0  0  0  0  0  0  0  0  0  0  0  0
   65.2289  -28.6466   36.3594 H   0  0  0  0  0  0  0  0  0  0  0  0
   67.4972  -27.9718   35.5450 H   0  0  0  0  0  0  0  0  0  0  0  0
   67.5029  -29.3393   34.4274 H   0  0  0  0  0  0  0  0  0  0  0  0
   67.2626  -30.9163   36.3566 H   0  0  0  0  0  0  0  0  0  0  0  0
   67.2574  -29.5485   37.4737 H   0  0  0  0  0  0  0  0  0  0  0  0
   69.5262  -28.8744   36.6591 H   0  0  0  0  0  0  0  0  0  0  0  0
   69.5313  -30.2420   35.5417 H   0  0  0  0  0  0  0  0  0  0  0  0
   69.2900  -31.8186   37.4716 H   0  0  0  0  0  0  0  0  0  0  0  0
   69.2869  -30.4504   38.5883 H   0  0  0  0  0  0  0  0  0  0  0  0
   71.5564  -29.7797   37.7725 H   0  0  0  0  0  0  0  0  0  0  0  0
   71.5593  -31.1478   36.6559 H   0  0  0  0  0  0  0  0  0  0  0  0
   71.3196  -32.7238   38.5860 H   0  0  0  0  0  0  0  0  0  0  0  0
   71.3167  -31.3557   39.7027 H   0  0  0  0  0  0  0  0  0  0  0  0
   73.5865  -30.6852   38.8870 H   0  0  0  0  0  0  0  0  0  0  0  0
   73.5894  -32.0534   37.7707 H   0  0  0  0  0  0  0  0  0  0  0  0
   73.3514  -33.6292   39.7012 H   0  0  0  0  0  0  0  0  0  0  0  0
   73.3485  -32.2612   40.8179 H   0  0  0  0  0  0  0  0  0  0  0  0
   75.6188  -31.5910   40.0021 H   0  0  0  0  0  0  0  0  0  0  0  0
   75.6216  -32.9594   38.8861 H   0  0  0  0  0  0  0  0  0  0  0  0
   75.3894  -34.5356   40.8165 H   0  0  0  0  0  0  0  0  0  0  0  0
   75.3837  -33.1683   41.9338 H   0  0  0  0  0  0  0  0  0  0  0  0
   77.6551  -32.4950   41.1206 H   0  0  0  0  0  0  0  0  0  0  0  0
   77.6603  -33.8625   40.0037 H   0  0  0  0  0  0  0  0  0  0  0  0
   77.4314  -35.4403   41.9343 H   0  0  0  0  0  0  0  0  0  0  0  0
   77.4266  -34.0733   43.0513 H   0  0  0  0  0  0  0  0  0  0  0  0
   79.7028  -33.4061   42.2427 H   0  0  0  0  0  0  0  0  0  0  0  0
   79.7068  -34.7750   41.1274 H   0  0  0  0  0  0  0  0  0  0  0  0
   79.4706  -36.3503   43.0611 H   0  0  0  0  0  0  0  0  0  0  0  0
   79.4677  -34.9819   44.1756 H   0  0  0  0  0  0  0  0  0  0  0  0
   81.7561  -34.3317   43.3827 H   0  0  0  0  0  0  0  0  0  0  0  0
   81.7589  -35.7013   42.2689 H   0  0  0  0  0  0  0  0  0  0  0  0
   81.5427  -35.9014   45.3196 H   0  0  0  0  0  0  0  0  0  0  0  0
   82.9846  -36.2523   44.3489 H   0  0  0  0  0  0  0  0  0  0  0  0
   81.5457  -37.2780   44.2001 H   0  0  0  0  0  0  0  0  0  0  0  0
  1  2  1  0  0  0  0
  1 82  1  0  0  0  0
  2  3  1  0  0  0  0
  2 83  1  0  0  0  0
  2 84  1  0  0  0  0
  3  4  1  0  0  0  0
  3 85  1  0  0  0  0
  3 86  1  0  0  0  0
  4  5  1  0  0  0  0
  4 87  1  0  0  0  0
  4 88  1  0  0  0  0
  5  6  1  0  0  0  0
  5 89  1  0  0  0  0
  6  7  1  0  0  0  0
  6 90  1  0  0  0  0
  6 91  1  0  0  0  0
  7  8  1  0  0  0  0
  7 92  1  0  0  0  0
  7 93  1  0  0  0  0
  8  9  1  0  0  0  0
  8 94  1  0  0  0  0
  8 95  1  0  0  0  0
  9 10  1  0  0  0  0
  9 96  1  0  0  0  0
  9 97  1  0  0  0  0
 10 11  1  0  0  0  0
 10 98  1  0  0  0  0
 10 99  1  0  0  0  0
 11 12  1  0  0  0  0
 11100  1  0  0  0  0
 11101  1  0  0  0  0
 12 13  1  0  0  0  0
 12102  1  0  0  0  0
 12103  1  0  0  0  0
 13 14  1  0  0  0  0
 13104  1  0  0  0  0
 13105  1  0  0  0  0
 14 15  1  0  0  0  0
 14106  1  0  0  0  0
 14107  1  0  0  0  0
 15 16  1  0  0  0  0
 15108  1  0  0  0  0
 15109  1  0  0  0  0
 16 17  1  0  0  0  0
 16110  1  0  0  0  0
 16111  1  0  0  0  0
 17 18  1  0  0  0  0
 17112  1  0  0  0  0
 17113  1  0  0  0  0
 18 19  1  0  0  0  0
 18114  1  0  0  0  0
 18115  1  0  0  0  0
 19 20  1  0  0  0  0
 19116  1  0  0  0  0
 19117  1  0  0  0  0
 20 21  1  0  0  0  0
 20118  1  0  0  0  0
 20119  1  0  0  0  0
 21 22  1  0  0  0  0
 21120  1  0  0  0  0
 21121  1  0  0  0  0
 22 23  1  0  0  0  0
 22122  1  0  0  0  0
 22123  1  0  0  0  0
 23 24  1  0  0  0  0
 23124  1  0  0  0  0
 23125  1  0  0  0  0
 24 25  1  0  0  0  0
 24126  1  0  0  0  0
 24127  1  0  0  0  0
 25 26  1  0  0  0  0
 25128  1  0  0  0  0
 25129  1  0  0  0  0
 26 27  1  0  0  0  0
 26130  1  0  0  0  0
 26131  1  0  0  0  0
 27 28  1  0  0  0  0
 27132  1  0  0  0  0
 27133  1  0  0  0  0
 28 29  1  0  0  0  0
 28134  1  0  0  0  0
 28135  1  0  0  0  0
 29 30  1  0  0  0  0
 29136  1  0  0  0  0
 29137  1  0  0  0  0
 30 31  1  0  0  0  0
 30138  1  0  0  0  0
 30139  1  0  0  0  0
 31 32  1  0  0  0  0
 31140  1  0  0  0  0
 31141  1  0  0  0  0
 32 33  1  0  0  0  0
 32142  1  0  0  0  0
 32143  1  0  0  0  0
 33 34  1  0  0  0  0
 33144  1  0  0  0  0
 33145  1  0  0  0  0
 34 35  1  0  0  0  0
 34146  1  0  0  0  0
 34147  1  0  0  0  0
 35 36  1  0  0  0  0
 35148  1  0  0  0  0
 35149  1  0  0  0  0
 36 37  1  0  0  0  0
 36150  1  0  0  0  0
 36151  1  0  0  0  0
 37 38  1  0  0  0  0
 37152  1  0  0  0  0
 37153  1  0  0  0  0
 38 39  1  0  0  0  0
 38154  1  0  0  0  0
 38155  1  0  0  0  0
 39 40  1  0  0  0  0
 39156  1  0  0  0  0
 39157  1  0  0  0  0
 40 41  1  0  0  0  0
 40158  1  0  0  0  0
 40159  1  0  0  0  0
 41 42  1  0  0  0  0
 41160  1  0  0  0  0
 41161  1  0  0  0  0
 42 43  1  0  0  0  0
 42162  1  0  0  0  0
 42163  1  0  0  0  0
 43 44  1  0  0  0  0
 43164  1  0  0  0  0
 43165  1  0  0  0  0
 44 45  1  0  0  0  0
 44166  1  0  0  0  0
 44167  1  0  0  0  0
 45 46  1  0  0  0  0
 45168  1  0  0  0  0
 45169  1  0  0  0  0
 46 47  1  0  0  0  0
 46170  1  0  0  0  0
 46171  1  0  0  0  0
 47 48  1  0  0  0  0
 47172  1  0  0  0  0
 48 49  1  0  0  0  0
 48173  1  0  0  0  0
 48174  1  0  0  0  0
 49 50  1  0  0  0  0
 49175  1  0  0  0  0
 49176  1  0  0  0  0
 50 51  1  0  0  0  0
 50177  1  0  0  0  0
 51 52  1  0  0  0  0
 51178  1  0  0  0  0
 51179  1  0  0  0  0
 52 53  1  0  0  0  0
 52180  1  0  0  0  0
 52181  1  0  0  0  0
 53 54  1  0  0  0  0
 53182  1  0  0  0  0
 53183  1  0  0  0  0
 54 55  1  0  0  0  0
 54184  1  0  0  0  0
 54185  1  0  0  0  0
 55 56  1  0  0  0  0
 55186  1  0  0  0  0
 55187  1  0  0  0  0
 56 57  1  0  0  0  0
 56188  1  0  0  0  0
 56189  1  0  0  0  0
 57 58  1  0  0  0  0
 57190  1  0  0  0  0
 57191  1  0  0  0  0
 58 59  1  0  0  0  0
 58192  1  0  0  0  0
 58193  1  0  0  0  0
 59 60  1  0  0  0  0
 59194  1  0  0  0  0
 59195  1  0  0  0  0
 60 61  1  0  0  0  0
 60196  1  0  0  0  0
 60197  1  0  0  0  0
 61 62  1  0  0  0  0
 61198  1  0  0  0  0
 61199  1  0  0  0  0
 62 63  1  0  0  0  0
 62200  1  0  0  0  0
 62201  1  0  0  0  0
 63 64  1  0  0  0  0
 63202  1  0  0  0  0
 63203  1  0  0  0  0
 64 65  1  0  0  0  0
 64204  1  0  0  0  0
 64205  1  0  0  0  0
 65 66  1  0  0  0  0
 65206  1  0  0  0  0
 65207  1  0  0  0  0
 66 67  1  0  0  0  0
 66208  1  0  0  0  0
 66209  1  0  0  0  0
 67 68  1  0  0  0  0
 67210  1  0  0  0  0
 67211  1  0  0  0  0
 68 69  1  0  0  0  0
 68212  1  0  0  0  0
 68213  1  0  0  0  0
 69 70  1  0  0  0  0
 69214  1  0  0  0  0
 69215  1  0  0  0  0
 70 71  1  0  0  0  0
 70216  1  0  0  0  0
 70217  1  0  0  0  0
 71 72  1  0  0  0  0
 71218  1  0  0  0  0
 71219  1  0  0  0  0
 72 73  1  0  0  0  0
 72220  1  0  0  0  0
 72221  1  0  0  0  0
 73 74  1  0  0  0  0
 73222  1  0  0  0  0
 73223  1  0  0  0  0
 74 75  1  0  0  0  0
 74224  1  0  0  0  0
 74225  1  0  0  0  0
 75 76  1  0  0  0  0
 75226  1  0  0  0  0
 75227  1  0  0  0  0
 76 77  1  0  0  0  0
 76228  1  0  0  0  0
 76229  1  0  0  0  0
 77 78  1  0  0  0  0
 77230  1  0  0  0  0
 77231  1  0  0  0  0
 78 79  1  0  0  0  0
 78232  1  0  0  0  0
 78233  1  0  0  0  0
 79 80  1  0  0  0  0
 79234  1  0  0  0  0
 79235  1  0  0  0  0
 80 81  1  0  0  0  0
 80236  1  0  0  0  0
 80237  1  0  0  0  0
 81238  1  0  0  0  0
 81239  1  0  0  0  0
 81240  1  0  0  0  0
M  END
$$$$
