
 OpenBabel04232216423D

193192  0  0  0  0  0  0  0  0999 V2000
   26.7716   24.5469  -21.4108 C   0  0  0  0  0  0  0  0  0  0  0  0
   27.5843   24.6139  -20.3420 C   0  0  0  0  0  0  0  0  0  0  0  0
   28.2208   23.3923  -19.7088 C   0  0  0  0  0  0  0  0  0  0  0  0
   27.8196   23.2579  -18.3190 N   0  0  0  0  0  0  0  0  0  0  0  0
   28.4155   22.0909  -17.8244 N   0  0  0  0  0  0  0  0  0  0  0  0
   28.0440   21.9256  -16.4631 N   0  0  0  0  0  0  0  0  0  0  0  0
   28.6473   20.7629  -15.9484 N   0  0  0  0  0  0  0  0  0  0  0  0
   30.0836   20.8866  -15.9909 N   0  0  0  0  0  0  0  0  0  0  0  0
   30.5107   22.0500  -15.2639 N   0  0  0  0  0  0  0  0  0  0  0  0
   30.1331   21.9261  -13.8847 N   0  0  0  0  0  0  0  0  0  0  0  0
   30.7212   20.7400  -13.3176 N   0  0  0  0  0  0  0  0  0  0  0  0
   32.1545   20.8301  -13.4063 N   0  0  0  0  0  0  0  0  0  0  0  0
   32.6279   21.9936  -12.6803 N   0  0  0  0  0  0  0  0  0  0  0  0
   32.2395   21.9075  -11.3113 N   0  0  0  0  0  0  0  0  0  0  0  0
   32.8027   20.7313  -10.7380 N   0  0  0  0  0  0  0  0  0  0  0  0
   34.2263   20.7839  -10.8518 N   0  0  0  0  0  0  0  0  0  0  0  0
   34.7472   21.9259  -10.1288 N   0  0  0  0  0  0  0  0  0  0  0  0
   34.3437   21.8675   -8.7664 N   0  0  0  0  0  0  0  0  0  0  0  0
   34.8806   20.6820   -8.1746 N   0  0  0  0  0  0  0  0  0  0  0  0
   36.3021   20.7047   -8.3241 N   0  0  0  0  0  0  0  0  0  0  0  0
   36.8021   21.8738   -7.6523 N   0  0  0  0  0  0  0  0  0  0  0  0
   36.4389   21.8290   -6.2488 N   0  0  0  0  0  0  0  0  0  0  0  0
   36.9569   20.6500   -5.6265 N   0  0  0  0  0  0  0  0  0  0  0  0
   38.3921   20.6356   -5.7130 N   0  0  0  0  0  0  0  0  0  0  0  0
   38.9382   21.7896   -5.0689 N   0  0  0  0  0  0  0  0  0  0  0  0
   38.5272   21.8056   -3.7100 N   0  0  0  0  0  0  0  0  0  0  0  0
   39.0071   20.6091   -3.1024 N   0  0  0  0  0  0  0  0  0  0  0  0
   40.4433   20.5736   -3.2158 N   0  0  0  0  0  0  0  0  0  0  0  0
   41.0301   21.7164   -2.5558 N   0  0  0  0  0  0  0  0  0  0  0  0
   40.6602   21.7569   -1.1843 N   0  0  0  0  0  0  0  0  0  0  0  0
   41.1039   20.5729   -0.5267 N   0  0  0  0  0  0  0  0  0  0  0  0
   42.5395   20.4901   -0.6355 N   0  0  0  0  0  0  0  0  0  0  0  0
   43.1247   21.6617   -0.0572 N   0  0  0  0  0  0  0  0  0  0  0  0
   42.7573   21.7375    1.3421 N   0  0  0  0  0  0  0  0  0  0  0  0
   43.1880   20.5397    2.0049 N   0  0  0  0  0  0  0  0  0  0  0  0
   44.6150   20.4376    1.8924 N   0  0  0  0  0  0  0  0  0  0  0  0
   45.2504   21.5775    2.5049 N   0  0  0  0  0  0  0  0  0  0  0  0
   44.9056   21.6900    3.8716 N   0  0  0  0  0  0  0  0  0  0  0  0
   45.3042   20.5331    4.5712 N   0  0  0  0  0  0  0  0  0  0  0  0
   46.7259   20.3894    4.4633 N   0  0  0  0  0  0  0  0  0  0  0  0
   47.3799   21.5431    4.9864 N   0  0  0  0  0  0  0  0  0  0  0  0
   47.0052   21.7010    6.3551 N   0  0  0  0  0  0  0  0  0  0  0  0
   47.4263   20.5234    7.0848 N   0  0  0  0  0  0  0  0  0  0  0  0
   48.8359   20.3329    6.9617 N   0  0  0  0  0  0  0  0  0  0  0  0
   49.5303   21.4640    7.4773 N   0  0  0  0  0  0  0  0  0  0  0  0
   49.1967   21.6418    8.8595 N   0  0  0  0  0  0  0  0  0  0  0  0
   49.5350   20.4768    9.6106 N   0  0  0  0  0  0  0  0  0  0  0  0
   50.9417   20.2430    9.5101 N   0  0  0  0  0  0  0  0  0  0  0  0
   51.6740   21.3994   10.0065 N   0  0  0  0  0  0  0  0  0  0  0  0
   51.2783   21.5701   11.3934 C   0  0  0  0  0  0  0  0  0  0  0  0
   51.6331   20.3793   12.1409 N   0  0  0  0  0  0  0  0  0  0  0  0
   53.0768   20.1404   12.0521 C   0  0  0  0  0  0  0  0  0  0  0  0
   53.4594   18.8942   12.8272 C   0  0  0  0  0  0  0  0  0  0  0  0
   54.9582   18.6495   12.7282 C   0  0  0  0  0  0  0  0  0  0  0  0
   55.3389   17.4045   13.5075 C   0  0  0  0  0  0  0  0  0  0  0  0
   56.8326   17.1628   13.4108 C   0  0  0  0  0  0  0  0  0  0  0  0
   57.2092   15.9178   14.1885 C   0  0  0  0  0  0  0  0  0  0  0  0
   58.7018   15.6768   14.0914 C   0  0  0  0  0  0  0  0  0  0  0  0
   59.0782   14.4333   14.8707 C   0  0  0  0  0  0  0  0  0  0  0  0
   60.5707   14.1925   14.7735 C   0  0  0  0  0  0  0  0  0  0  0  0
   60.9471   12.9490   15.5527 C   0  0  0  0  0  0  0  0  0  0  0  0
   62.4396   12.7081   15.4555 C   0  0  0  0  0  0  0  0  0  0  0  0
   62.8159   11.4647   16.2348 C   0  0  0  0  0  0  0  0  0  0  0  0
   64.3084   11.2238   16.1376 C   0  0  0  0  0  0  0  0  0  0  0  0
   64.6848    9.9803   16.9168 C   0  0  0  0  0  0  0  0  0  0  0  0
   66.1773    9.7395   16.8196 C   0  0  0  0  0  0  0  0  0  0  0  0
   66.5536    8.4960   17.5989 C   0  0  0  0  0  0  0  0  0  0  0  0
   68.0462    8.2551   17.5017 C   0  0  0  0  0  0  0  0  0  0  0  0
   68.4228    7.0128   18.2826 C   0  0  0  0  0  0  0  0  0  0  0  0
   69.9153    6.7719   18.1854 C   0  0  0  0  0  0  0  0  0  0  0  0
   70.2919    5.5296   18.9663 C   0  0  0  0  0  0  0  0  0  0  0  0
   71.7844    5.2887   18.8691 C   0  0  0  0  0  0  0  0  0  0  0  0
   72.1610    4.0463   19.6500 C   0  0  0  0  0  0  0  0  0  0  0  0
   73.6536    3.8055   19.5528 C   0  0  0  0  0  0  0  0  0  0  0  0
   74.0299    2.5620   20.3320 C   0  0  0  0  0  0  0  0  0  0  0  0
   75.5224    2.3211   20.2349 C   0  0  0  0  0  0  0  0  0  0  0  0
   75.8986    1.0774   21.0143 C   0  0  0  0  0  0  0  0  0  0  0  0
   77.3910    0.8345   20.9161 C   0  0  0  0  0  0  0  0  0  0  0  0
   77.7707   -0.4093   21.6974 C   0  0  0  0  0  0  0  0  0  0  0  0
   79.2602   -0.6479   21.5968 C   0  0  0  0  0  0  0  0  0  0  0  0
   26.3257   25.4415  -21.8174 H   0  0  0  0  0  0  0  0  0  0  0  0
   26.5336   23.5894  -21.8617 H   0  0  0  0  0  0  0  0  0  0  0  0
   27.7964   25.5938  -19.9127 H   0  0  0  0  0  0  0  0  0  0  0  0
   29.3113   23.4947  -19.7959 H   0  0  0  0  0  0  0  0  0  0  0  0
   27.9286   22.5038  -20.2918 H   0  0  0  0  0  0  0  0  0  0  0  0
   26.8121   23.1245  -18.2633 H   0  0  0  0  0  0  0  0  0  0  0  0
   29.4340   22.1908  -17.8501 H   0  0  0  0  0  0  0  0  0  0  0  0
   27.0390   21.8340  -16.3692 H   0  0  0  0  0  0  0  0  0  0  0  0
   28.3257   19.9355  -16.4560 H   0  0  0  0  0  0  0  0  0  0  0  0
   30.4083   20.9952  -16.9458 H   0  0  0  0  0  0  0  0  0  0  0  0
   30.0879   22.8939  -15.6464 H   0  0  0  0  0  0  0  0  0  0  0  0
   29.1265   21.8424  -13.8001 H   0  0  0  0  0  0  0  0  0  0  0  0
   30.3796   19.9212  -13.8393 H   0  0  0  0  0  0  0  0  0  0  0  0
   32.4565   20.9335  -14.3698 H   0  0  0  0  0  0  0  0  0  0  0  0
   32.2051   22.8293  -13.0764 H   0  0  0  0  0  0  0  0  0  0  0  0
   31.2336   21.8436  -11.2258 H   0  0  0  0  0  0  0  0  0  0  0  0
   32.4394   19.9118  -11.2473 H   0  0  0  0  0  0  0  0  0  0  0  0
   34.5252   20.8418  -11.8289 H   0  0  0  0  0  0  0  0  0  0  0  0
   34.3448   22.7742  -10.5373 H   0  0  0  0  0  0  0  0  0  0  0  0
   33.3091   21.8760   -8.7368 H   0  0  0  0  0  0  0  0  0  0  0  0
   34.5387   19.8685   -8.6764 H   0  0  0  0  0  0  0  0  0  0  0  0
   36.5300   20.7528   -9.3264 H   0  0  0  0  0  0  0  0  0  0  0  0
   36.4049   22.7219   -8.0722 H   0  0  0  0  0  0  0  0  0  0  0  0
   35.4281   21.7993   -6.1470 H   0  0  0  0  0  0  0  0  0  0  0  0
   36.5910   19.8231   -6.0910 H   0  0  0  0  0  0  0  0  0  0  0  0
   38.6580   20.6261   -6.7081 H   0  0  0  0  0  0  0  0  0  0  0  0
   38.5781   22.6354   -5.5110 H   0  0  0  0  0  0  0  0  0  0  0  0
   37.5011   21.8341   -3.6811 H   0  0  0  0  0  0  0  0  0  0  0  0
   38.6194   19.7944   -3.5897 H   0  0  0  0  0  0  0  0  0  0  0  0
   40.7341   20.6063   -4.1902 H   0  0  0  0  0  0  0  0  0  0  0  0
   40.6962   22.5694   -3.0102 H   0  0  0  0  0  0  0  0  0  0  0  0
   39.6394   21.8187   -1.1324 H   0  0  0  0  0  0  0  0  0  0  0  0
   40.6827   19.7654   -0.9896 H   0  0  0  0  0  0  0  0  0  0  0  0
   42.7843   20.4931   -1.6245 H   0  0  0  0  0  0  0  0  0  0  0  0
   42.7606   22.4832   -0.5509 H   0  0  0  0  0  0  0  0  0  0  0  0
   41.7336   21.8191    1.3808 H   0  0  0  0  0  0  0  0  0  0  0  0
   42.7533   19.7157    1.5750 H   0  0  0  0  0  0  0  0  0  0  0  0
   44.9320   20.3840    0.9264 H   0  0  0  0  0  0  0  0  0  0  0  0
   44.9720   22.4418    2.0394 H   0  0  0  0  0  0  0  0  0  0  0  0
   43.9036   21.7881    3.9784 H   0  0  0  0  0  0  0  0  0  0  0  0
   44.8818   19.7151    4.1568 H   0  0  0  0  0  0  0  0  0  0  0  0
   46.9486   20.3294    3.4704 H   0  0  0  0  0  0  0  0  0  0  0  0
   47.0485   22.3498    4.4349 H   0  0  0  0  0  0  0  0  0  0  0  0
   45.9812   21.7958    6.3976 H   0  0  0  0  0  0  0  0  0  0  0  0
   46.9549   19.7034    6.6819 H   0  0  0  0  0  0  0  0  0  0  0  0
   49.0879   20.2325    5.9783 H   0  0  0  0  0  0  0  0  0  0  0  0
   49.2338   22.2843    6.9567 H   0  0  0  0  0  0  0  0  0  0  0  0
   48.1838   21.7558    8.9061 H   0  0  0  0  0  0  0  0  0  0  0  0
   49.0380   19.6854    9.2045 H   0  0  0  0  0  0  0  0  0  0  0  0
   51.1468   20.1357    8.5212 H   0  0  0  0  0  0  0  0  0  0  0  0
   51.3437   22.2002    9.4754 H   0  0  0  0  0  0  0  0  0  0  0  0
   50.2016   21.7624   11.5022 H   0  0  0  0  0  0  0  0  0  0  0  0
   51.7852   22.4420   11.8180 H   0  0  0  0  0  0  0  0  0  0  0  0
   51.1302   19.5797   11.7549 H   0  0  0  0  0  0  0  0  0  0  0  0
   53.6298   20.9979   12.4535 H   0  0  0  0  0  0  0  0  0  0  0  0
   53.3834   20.0016   11.0085 H   0  0  0  0  0  0  0  0  0  0  0  0
   52.9262   18.0243   12.4265 H   0  0  0  0  0  0  0  0  0  0  0  0
   53.1815   19.0104   13.8803 H   0  0  0  0  0  0  0  0  0  0  0  0
   55.5043   19.5122   13.1281 H   0  0  0  0  0  0  0  0  0  0  0  0
   55.2483   18.5259   11.6778 H   0  0  0  0  0  0  0  0  0  0  0  0
   54.7993   16.5382   13.1076 H   0  0  0  0  0  0  0  0  0  0  0  0
   55.0531   17.5244   14.5590 H   0  0  0  0  0  0  0  0  0  0  0  0
   57.3742   18.0270   13.8127 H   0  0  0  0  0  0  0  0  0  0  0  0
   57.1208   17.0427   12.3599 H   0  0  0  0  0  0  0  0  0  0  0  0
   56.6683   15.0530   13.7869 H   0  0  0  0  0  0  0  0  0  0  0  0
   56.9217   16.0373   15.2396 H   0  0  0  0  0  0  0  0  0  0  0  0
   59.2430   16.5420   14.4919 H   0  0  0  0  0  0  0  0  0  0  0  0
   58.9893   15.5558   13.0405 H   0  0  0  0  0  0  0  0  0  0  0  0
   58.5371   13.5681   14.4702 H   0  0  0  0  0  0  0  0  0  0  0  0
   58.7908   14.5543   15.9216 H   0  0  0  0  0  0  0  0  0  0  0  0
   61.1118   15.0577   15.1739 H   0  0  0  0  0  0  0  0  0  0  0  0
   60.8582   14.0714   13.7226 H   0  0  0  0  0  0  0  0  0  0  0  0
   60.4060   12.0838   15.1523 H   0  0  0  0  0  0  0  0  0  0  0  0
   60.6597   13.0700   16.6036 H   0  0  0  0  0  0  0  0  0  0  0  0
   62.9807   13.5734   15.8560 H   0  0  0  0  0  0  0  0  0  0  0  0
   62.7270   12.5871   14.4046 H   0  0  0  0  0  0  0  0  0  0  0  0
   62.2749   10.5994   15.8343 H   0  0  0  0  0  0  0  0  0  0  0  0
   62.5285   11.5857   17.2857 H   0  0  0  0  0  0  0  0  0  0  0  0
   64.8495   12.0890   16.5380 H   0  0  0  0  0  0  0  0  0  0  0  0
   64.5959   11.1028   15.0867 H   0  0  0  0  0  0  0  0  0  0  0  0
   64.1437    9.1151   16.5164 H   0  0  0  0  0  0  0  0  0  0  0  0
   64.3974   10.1014   17.9678 H   0  0  0  0  0  0  0  0  0  0  0  0
   66.7184   10.6047   17.2201 H   0  0  0  0  0  0  0  0  0  0  0  0
   66.4647    9.6184   15.7687 H   0  0  0  0  0  0  0  0  0  0  0  0
   66.0126    7.6308   17.1985 H   0  0  0  0  0  0  0  0  0  0  0  0
   66.2662    8.6171   18.6498 H   0  0  0  0  0  0  0  0  0  0  0  0
   68.5872    9.1210   17.9008 H   0  0  0  0  0  0  0  0  0  0  0  0
   68.3333    8.1327   16.4509 H   0  0  0  0  0  0  0  0  0  0  0  0
   67.8817    6.1469   17.8835 H   0  0  0  0  0  0  0  0  0  0  0  0
   68.1356    7.1352   19.3334 H   0  0  0  0  0  0  0  0  0  0  0  0
   70.4564    7.6378   18.5845 H   0  0  0  0  0  0  0  0  0  0  0  0
   70.2025    6.6495   17.1346 H   0  0  0  0  0  0  0  0  0  0  0  0
   69.7508    4.6637   18.5672 H   0  0  0  0  0  0  0  0  0  0  0  0
   70.0047    5.6520   20.0171 H   0  0  0  0  0  0  0  0  0  0  0  0
   72.3255    6.1545   19.2682 H   0  0  0  0  0  0  0  0  0  0  0  0
   72.0716    5.1662   17.8183 H   0  0  0  0  0  0  0  0  0  0  0  0
   71.6200    3.1805   19.2509 H   0  0  0  0  0  0  0  0  0  0  0  0
   71.8739    4.1688   20.7008 H   0  0  0  0  0  0  0  0  0  0  0  0
   74.1946    4.6707   19.9532 H   0  0  0  0  0  0  0  0  0  0  0  0
   73.9410    3.6844   18.5019 H   0  0  0  0  0  0  0  0  0  0  0  0
   73.4888    1.6968   19.9316 H   0  0  0  0  0  0  0  0  0  0  0  0
   73.7425    2.6831   21.3830 H   0  0  0  0  0  0  0  0  0  0  0  0
   76.0635    3.1863   20.6353 H   0  0  0  0  0  0  0  0  0  0  0  0
   75.8098    2.2001   19.1839 H   0  0  0  0  0  0  0  0  0  0  0  0
   75.3565    0.2126   20.6146 H   0  0  0  0  0  0  0  0  0  0  0  0
   75.6125    1.1993   22.0654 H   0  0  0  0  0  0  0  0  0  0  0  0
   77.9328    1.7009   21.3135 H   0  0  0  0  0  0  0  0  0  0  0  0
   77.6766    0.7126   19.8645 H   0  0  0  0  0  0  0  0  0  0  0  0
   77.2318   -1.2759   21.2992 H   0  0  0  0  0  0  0  0  0  0  0  0
   77.4882   -0.2871   22.7487 H   0  0  0  0  0  0  0  0  0  0  0  0
   79.5530   -0.7848   20.5511 H   0  0  0  0  0  0  0  0  0  0  0  0
   79.5362   -1.5429   22.1585 H   0  0  0  0  0  0  0  0  0  0  0  0
   79.8100    0.2063   22.0041 H   0  0  0  0  0  0  0  0  0  0  0  0
  1  2  2  0  0  0  0
  1 81  1  0  0  0  0
  1 82  1  0  0  0  0
  2  3  1  0  0  0  0
  2 83  1  0  0  0  0
  3  4  1  0  0  0  0
  3 84  1  0  0  0  0
  3 85  1  0  0  0  0
  4  5  1  0  0  0  0
  4 86  1  0  0  0  0
  5  6  1  0  0  0  0
  5 87  1  0  0  0  0
  6  7  1  0  0  0  0
  6 88  1  0  0  0  0
  7  8  1  0  0  0  0
  7 89  1  0  0  0  0
  8  9  1  0  0  0  0
  8 90  1  0  0  0  0
  9 10  1  0  0  0  0
  9 91  1  0  0  0  0
 10 11  1  0  0  0  0
 10 92  1  0  0  0  0
 11 12  1  0  0  0  0
 11 93  1  0  0  0  0
 12 13  1  0  0  0  0
 12 94  1  0  0  0  0
 13 14  1  0  0  0  0
 13 95  1  0  0  0  0
 14 15  1  0  0  0  0
 14 96  1  0  0  0  0
 15 16  1  0  0  0  0
 15 97  1  0  0  0  0
 16 17  1  0  0  0  0
 16 98  1  0  0  0  0
 17 18  1  0  0  0  0
 17 99  1  0  0  0  0
 18 19  1  0  0  0  0
 18100  1  0  0  0  0
 19 20  1  0  0  0  0
 19101  1  0  0  0  0
 20 21  1  0  0  0  0
 20102  1  0  0  0  0
 21 22  1  0  0  0  0
 21103  1  0  0  0  0
 22 23  1  0  0  0  0
 22104  1  0  0  0  0
 23 24  1  0  0  0  0
 23105  1  0  0  0  0
 24 25  1  0  0  0  0
 24106  1  0  0  0  0
 25 26  1  0  0  0  0
 25107  1  0  0  0  0
 26 27  1  0  0  0  0
 26108  1  0  0  0  0
 27 28  1  0  0  0  0
 27109  1  0  0  0  0
 28 29  1  0  0  0  0
 28110  1  0  0  0  0
 29 30  1  0  0  0  0
 29111  1  0  0  0  0
 30 31  1  0  0  0  0
 30112  1  0  0  0  0
 31 32  1  0  0  0  0
 31113  1  0  0  0  0
 32 33  1  0  0  0  0
 32114  1  0  0  0  0
 33 34  1  0  0  0  0
 33115  1  0  0  0  0
 34 35  1  0  0  0  0
 34116  1  0  0  0  0
 35 36  1  0  0  0  0
 35117  1  0  0  0  0
 36 37  1  0  0  0  0
 36118  1  0  0  0  0
 37 38  1  0  0  0  0
 37119  1  0  0  0  0
 38 39  1  0  0  0  0
 38120  1  0  0  0  0
 39 40  1  0  0  0  0
 39121  1  0  0  0  0
 40 41  1  0  0  0  0
 40122  1  0  0  0  0
 41 42  1  0  0  0  0
 41123  1  0  0  0  0
 42 43  1  0  0  0  0
 42124  1  0  0  0  0
 43 44  1  0  0  0  0
 43125  1  0  0  0  0
 44 45  1  0  0  0  0
 44126  1  0  0  0  0
 45 46  1  0  0  0  0
 45127  1  0  0  0  0
 46 47  1  0  0  0  0
 46128  1  0  0  0  0
 47 48  1  0  0  0  0
 47129  1  0  0  0  0
 48 49  1  0  0  0  0
 48130  1  0  0  0  0
 49 50  1  0  0  0  0
 49131  1  0  0  0  0
 50 51  1  0  0  0  0
 50132  1  0  0  0  0
 50133  1  0  0  0  0
 51 52  1  0  0  0  0
 51134  1  0  0  0  0
 52 53  1  0  0  0  0
 52135  1  0  0  0  0
 52136  1  0  0  0  0
 53 54  1  0  0  0  0
 53137  1  0  0  0  0
 53138  1  0  0  0  0
 54 55  1  0  0  0  0
 54139  1  0  0  0  0
 54140  1  0  0  0  0
 55 56  1  0  0  0  0
 55141  1  0  0  0  0
 55142  1  0  0  0  0
 56 57  1  0  0  0  0
 56143  1  0  0  0  0
 56144  1  0  0  0  0
 57 58  1  0  0  0  0
 57145  1  0  0  0  0
 57146  1  0  0  0  0
 58 59  1  0  0  0  0
 58147  1  0  0  0  0
 58148  1  0  0  0  0
 59 60  1  0  0  0  0
 59149  1  0  0  0  0
 59150  1  0  0  0  0
 60 61  1  0  0  0  0
 60151  1  0  0  0  0
 60152  1  0  0  0  0
 61 62  1  0  0  0  0
 61153  1  0  0  0  0
 61154  1  0  0  0  0
 62 63  1  0  0  0  0
 62155  1  0  0  0  0
 62156  1  0  0  0  0
 63 64  1  0  0  0  0
 63157  1  0  0  0  0
 63158  1  0  0  0  0
 64 65  1  0  0  0  0
 64159  1  0  0  0  0
 64160  1  0  0  0  0
 65 66  1  0  0  0  0
 65161  1  0  0  0  0
 65162  1  0  0  0  0
 66 67  1  0  0  0  0
 66163  1  0  0  0  0
 66164  1  0  0  0  0
 67 68  1  0  0  0  0
 67165  1  0  0  0  0
 67166  1  0  0  0  0
 68 69  1  0  0  0  0
 68167  1  0  0  0  0
 68168  1  0  0  0  0
 69 70  1  0  0  0  0
 69169  1  0  0  0  0
 69170  1  0  0  0  0
 70 71  1  0  0  0  0
 70171  1  0  0  0  0
 70172  1  0  0  0  0
 71 72  1  0  0  0  0
 71173  1  0  0  0  0
 71174  1  0  0  0  0
 72 73  1  0  0  0  0
 72175  1  0  0  0  0
 72176  1  0  0  0  0
 73 74  1  0  0  0  0
 73177  1  0  0  0  0
 73178  1  0  0  0  0
 74 75  1  0  0  0  0
 74179  1  0  0  0  0
 74180  1  0  0  0  0
 75 76  1  0  0  0  0
 75181  1  0  0  0  0
 75182  1  0  0  0  0
 76 77  1  0  0  0  0
 76183  1  0  0  0  0
 76184  1  0  0  0  0
 77 78  1  0  0  0  0
 77185  1  0  0  0  0
 77186  1  0  0  0  0
 78 79  1  0  0  0  0
 78187  1  0  0  0  0
 78188  1  0  0  0  0
 79 80  1  0  0  0  0
 79189  1  0  0  0  0
 79190  1  0  0  0  0
 80191  1  0  0  0  0
 80192  1  0  0  0  0
 80193  1  0  0  0  0
M  END
$$$$
