
 OpenBabel04232216433D

237236  0  0  1  0  0  0  0  0999 V2000
    0.8876   -0.0673    0.0051 C   0  0  0  0  0  0  0  0  0  0  0  0
    2.4188   -0.0673   -0.0015 C   0  0  3  0  0  0  0  0  0  0  0  0
    2.9673    0.6565    1.2401 C   0  0  0  0  0  0  0  0  0  0  0  0
    4.4974    0.7343    1.2758 C   0  0  0  0  0  0  0  0  0  0  0  0
    5.0144    1.4300    2.5114 C   0  0  0  0  0  0  0  0  0  0  0  0
    2.9051   -1.5171   -0.0927 C   0  0  0  0  0  0  0  0  0  0  0  0
    4.3168   -1.5530   -0.2150 O   0  0  0  0  0  0  0  0  0  0  0  0
    4.8184   -2.8709   -0.1517 C   0  0  0  0  0  0  0  0  0  0  0  0
    6.3356   -2.8201   -0.1348 C   0  0  0  0  0  0  0  0  0  0  0  0
    6.8684   -4.2409   -0.1809 C   0  0  0  0  0  0  0  0  0  0  0  0
    8.3835   -4.2454   -0.1886 C   0  0  0  0  0  0  0  0  0  0  0  0
    8.8915   -5.6749   -0.2430 C   0  0  0  0  0  0  0  0  0  0  0  0
   10.4084   -5.6823   -0.2495 C   0  0  0  0  0  0  0  0  0  0  0  0
   10.9177   -7.1096   -0.3058 C   0  0  0  0  0  0  0  0  0  0  0  0
   12.4350   -7.1148   -0.3140 C   0  0  0  0  0  0  0  0  0  0  0  0
   12.9455   -8.5419   -0.3724 C   0  0  0  0  0  0  0  0  0  0  0  0
   14.4621   -8.5467   -0.3787 C   0  0  0  0  0  0  0  0  0  0  0  0
   14.9725   -9.9737   -0.4389 C   0  0  0  0  0  0  0  0  0  0  0  0
   16.4890   -9.9780   -0.4431 C   0  0  0  0  0  0  0  0  0  0  0  0
   16.9989  -11.4053   -0.5036 C   0  0  0  0  0  0  0  0  0  0  0  0
   18.5155  -11.4101   -0.5055 C   0  0  0  0  0  0  0  0  0  0  0  0
   19.0255  -12.8369   -0.5685 C   0  0  0  0  0  0  0  0  0  0  0  0
   20.5421  -12.8426   -0.5684 C   0  0  0  0  0  0  0  0  0  0  0  0
   21.0535  -14.2670   -0.6333 C   0  0  0  0  0  0  0  0  0  0  0  0
   22.5676  -14.2744   -0.6343 C   0  0  0  0  0  0  0  0  0  0  0  0
   23.0794  -15.6994   -0.7018 C   0  0  0  0  0  0  0  0  0  0  0  0
   24.5949  -15.7056   -0.7013 C   0  0  0  0  0  0  0  0  0  0  0  0
   25.1064  -17.1304   -0.7683 C   0  0  0  0  0  0  0  0  0  0  0  0
   26.6215  -17.1373   -0.7680 C   0  0  0  0  0  0  0  0  0  0  0  0
   27.1331  -18.5619   -0.8342 C   0  0  0  0  0  0  0  0  0  0  0  0
   28.6482  -18.5688   -0.8345 C   0  0  0  0  0  0  0  0  0  0  0  0
   29.1598  -19.9934   -0.9007 C   0  0  0  0  0  0  0  0  0  0  0  0
   30.6748  -20.0004   -0.9011 C   0  0  0  0  0  0  0  0  0  0  0  0
   31.1864  -21.4249   -0.9673 C   0  0  0  0  0  0  0  0  0  0  0  0
   32.7015  -21.4319   -0.9676 C   0  0  0  0  0  0  0  0  0  0  0  0
   33.2131  -22.8565   -1.0339 C   0  0  0  0  0  0  0  0  0  0  0  0
   34.7281  -22.8634   -1.0341 C   0  0  0  0  0  0  0  0  0  0  0  0
   35.2397  -24.2881   -1.0998 C   0  0  0  0  0  0  0  0  0  0  0  0
   36.7548  -24.2949   -1.1008 C   0  0  0  0  0  0  0  0  0  0  0  0
   37.2663  -25.7195   -1.1668 C   0  0  0  0  0  0  0  0  0  0  0  0
   38.7814  -25.7262   -1.1672 C   0  0  0  0  0  0  0  0  0  0  0  0
   39.2925  -27.1518   -1.2358 C   0  0  0  0  0  0  0  0  0  0  0  0
   40.8079  -27.1579   -1.2342 C   0  0  0  0  0  0  0  0  0  0  0  0
   41.3210  -28.5808   -1.3057 C   0  0  0  0  0  0  0  0  0  0  0  0
   42.8342  -28.5902   -1.3045 C   0  0  0  0  0  0  0  0  0  0  0  0
   43.3473  -30.0121   -1.3751 C   0  0  0  0  0  0  0  0  0  0  0  0
   44.8616  -30.0208   -1.3747 C   0  0  0  0  0  0  0  0  0  0  0  0
   45.3724  -31.4458   -1.4447 C   0  0  0  0  0  0  0  0  0  0  0  0
   46.8882  -31.4521   -1.4425 C   0  0  0  0  0  0  0  0  0  0  0  0
   47.3996  -32.8766   -1.5139 C   0  0  0  0  0  0  0  0  0  0  0  0
   48.9148  -32.8837   -1.5073 C   0  0  0  0  0  0  0  0  0  0  0  0
   49.4259  -34.3086   -1.5831 C   0  0  0  0  0  0  0  0  0  0  0  0
   50.9415  -34.3152   -1.5743 C   0  0  0  0  0  0  0  0  0  0  0  0
   51.4530  -35.7392   -1.6510 C   0  0  0  0  0  0  0  0  0  0  0  0
   52.9676  -35.7471   -1.6440 C   0  0  0  0  0  0  0  0  0  0  0  0
   53.4801  -37.1703   -1.7235 C   0  0  0  0  0  0  0  0  0  0  0  0
   54.9951  -37.1776   -1.7171 C   0  0  0  0  0  0  0  0  0  0  0  0
   55.5064  -38.6018   -1.7963 C   0  0  0  0  0  0  0  0  0  0  0  0
   57.0215  -38.6090   -1.7906 C   0  0  0  0  0  0  0  0  0  0  0  0
   57.5330  -40.0330   -1.8681 C   0  0  0  0  0  0  0  0  0  0  0  0
   59.0478  -40.0407   -1.8624 C   0  0  0  0  0  0  0  0  0  0  0  0
   59.5599  -41.4641   -1.9414 C   0  0  0  0  0  0  0  0  0  0  0  0
   61.0748  -41.4715   -1.9357 C   0  0  0  0  0  0  0  0  0  0  0  0
   61.5870  -42.8950   -2.0154 C   0  0  0  0  0  0  0  0  0  0  0  0
   63.1018  -42.9020   -2.0098 C   0  0  0  0  0  0  0  0  0  0  0  0
   63.6125  -44.3273   -2.0908 C   0  0  0  0  0  0  0  0  0  0  0  0
   65.1290  -44.3323   -2.0849 C   0  0  0  0  0  0  0  0  0  0  0  0
   65.6394  -45.7589   -2.1653 C   0  0  0  0  0  0  0  0  0  0  0  0
   67.1559  -45.7637   -2.1596 C   0  0  0  0  0  0  0  0  0  0  0  0
   67.6658  -47.1896   -2.2401 C   0  0  0  0  0  0  0  0  0  0  0  0
   69.1797  -47.1961   -2.2314 C   0  0  0  0  0  0  0  0  0  0  0  0
   69.6904  -48.6181   -2.3155 C   0  0  0  0  0  0  0  0  0  0  0  0
   71.2098  -48.6267   -2.3108 C   0  0  0  0  0  0  0  0  0  0  0  0
   71.7204  -50.0530   -2.3934 C   0  0  0  0  0  0  0  0  0  0  0  0
   73.2391  -50.0603   -2.3878 C   0  0  0  0  0  0  0  0  0  0  0  0
   73.7522  -51.4879   -2.4722 C   0  0  0  0  0  0  0  0  0  0  0  0
   75.2721  -51.4976   -2.4668 C   0  0  0  0  0  0  0  0  0  0  0  0
   75.7964  -52.9239   -2.5492 C   0  0  0  0  0  0  0  0  0  0  0  0
   77.3125  -52.9305   -2.5455 C   0  0  0  0  0  0  0  0  0  0  0  0
    0.4911    0.9519    0.0016 H   0  0  0  0  0  0  0  0  0  0  0  0
    0.5057   -0.5800    0.8966 H   0  0  0  0  0  0  0  0  0  0  0  0
    0.4982   -0.5852   -0.8747 H   0  0  0  0  0  0  0  0  0  0  0  0
    2.7677    0.4746   -0.8908 H   0  0  0  0  0  0  0  0  0  0  0  0
    2.6102    0.1520    2.1505 H   0  0  0  0  0  0  0  0  0  0  0  0
    2.5656    1.6783    1.2750 H   0  0  0  0  0  0  0  0  0  0  0  0
    4.8674    1.2281    0.3704 H   0  0  0  0  0  0  0  0  0  0  0  0
    4.9447   -0.2570    1.3272 H   0  0  0  0  0  0  0  0  0  0  0  0
    4.6559    2.4561    2.5542 H   0  0  0  0  0  0  0  0  0  0  0  0
    6.1093    1.4264    2.4928 H   0  0  0  0  0  0  0  0  0  0  0  0
    4.6899    0.8886    3.4076 H   0  0  0  0  0  0  0  0  0  0  0  0
    2.4893   -2.0028   -0.9787 H   0  0  0  0  0  0  0  0  0  0  0  0
    2.5851   -2.0677    0.8053 H   0  0  0  0  0  0  0  0  0  0  0  0
    4.4692   -3.4005   -1.0405 H   0  0  0  0  0  0  0  0  0  0  0  0
    4.4564   -3.3857    0.7467 H   0  0  0  0  0  0  0  0  0  0  0  0
    6.6981   -2.2990    0.7623 H   0  0  0  0  0  0  0  0  0  0  0  0
    6.7027   -2.2377   -0.9902 H   0  0  0  0  0  0  0  0  0  0  0  0
    6.4914   -4.7446   -1.0792 H   0  0  0  0  0  0  0  0  0  0  0  0
    6.4979   -4.8050    0.6837 H   0  0  0  0  0  0  0  0  0  0  0  0
    8.7636   -3.7473    0.7114 H   0  0  0  0  0  0  0  0  0  0  0  0
    8.7545   -3.6840   -1.0546 H   0  0  0  0  0  0  0  0  0  0  0  0
    8.5118   -6.1743   -1.1432 H   0  0  0  0  0  0  0  0  0  0  0  0
    8.5190   -6.2390    0.6212 H   0  0  0  0  0  0  0  0  0  0  0  0
   10.7882   -5.1853    0.6515 H   0  0  0  0  0  0  0  0  0  0  0  0
   10.7810   -5.1183   -1.1132 H   0  0  0  0  0  0  0  0  0  0  0  0
   10.5380   -7.6082   -1.2061 H   0  0  0  0  0  0  0  0  0  0  0  0
   10.5474   -7.6745    0.5585 H   0  0  0  0  0  0  0  0  0  0  0  0
   12.8158   -6.6181    0.5871 H   0  0  0  0  0  0  0  0  0  0  0  0
   12.8065   -6.5494   -1.1778 H   0  0  0  0  0  0  0  0  0  0  0  0
   12.5662   -9.0383   -1.2742 H   0  0  0  0  0  0  0  0  0  0  0  0
   12.5735   -9.1080    0.4906 H   0  0  0  0  0  0  0  0  0  0  0  0
   14.8416   -8.0516    0.5238 H   0  0  0  0  0  0  0  0  0  0  0  0
   14.8346   -7.9797   -1.2408 H   0  0  0  0  0  0  0  0  0  0  0  0
   14.5942  -10.4684   -1.3420 H   0  0  0  0  0  0  0  0  0  0  0  0
   14.5991  -10.5413    0.4225 H   0  0  0  0  0  0  0  0  0  0  0  0
   16.8673   -9.4836    0.4600 H   0  0  0  0  0  0  0  0  0  0  0  0
   16.8626   -9.4108   -1.3044 H   0  0  0  0  0  0  0  0  0  0  0  0
   16.6219  -11.8994   -1.4074 H   0  0  0  0  0  0  0  0  0  0  0  0
   16.6246  -11.9732    0.3571 H   0  0  0  0  0  0  0  0  0  0  0  0
   18.8925  -10.9171    0.3988 H   0  0  0  0  0  0  0  0  0  0  0  0
   18.8904  -10.8411   -1.3654 H   0  0  0  0  0  0  0  0  0  0  0  0
   18.6499  -13.3291   -1.4743 H   0  0  0  0  0  0  0  0  0  0  0  0
   18.6496  -13.4073    0.2908 H   0  0  0  0  0  0  0  0  0  0  0  0
   20.9179  -12.3501    0.3377 H   0  0  0  0  0  0  0  0  0  0  0  0
   20.9180  -12.2704   -1.4269 H   0  0  0  0  0  0  0  0  0  0  0  0
   20.6749  -14.7603   -1.5382 H   0  0  0  0  0  0  0  0  0  0  0  0
   20.6779  -14.8386    0.2266 H   0  0  0  0  0  0  0  0  0  0  0  0
   22.9464  -13.7820    0.2710 H   0  0  0  0  0  0  0  0  0  0  0  0
   22.9425  -13.7019   -1.4941 H   0  0  0  0  0  0  0  0  0  0  0  0
   22.7038  -16.1895   -1.6088 H   0  0  0  0  0  0  0  0  0  0  0  0
   22.7021  -16.2727    0.1560 H   0  0  0  0  0  0  0  0  0  0  0  0
   24.9715  -15.2145    0.2052 H   0  0  0  0  0  0  0  0  0  0  0  0
   24.9718  -15.1322   -1.5592 H   0  0  0  0  0  0  0  0  0  0  0  0
   24.7297  -17.6228   -1.6742 H   0  0  0  0  0  0  0  0  0  0  0  0
   24.7296  -17.7036    0.0889 H   0  0  0  0  0  0  0  0  0  0  0  0
   26.9986  -16.6458    0.1391 H   0  0  0  0  0  0  0  0  0  0  0  0
   26.9985  -16.5637   -1.6257 H   0  0  0  0  0  0  0  0  0  0  0  0
   26.7561  -19.0534   -1.7414 H   0  0  0  0  0  0  0  0  0  0  0  0
   26.7562  -19.1354    0.0234 H   0  0  0  0  0  0  0  0  0  0  0  0
   29.0251  -18.0773    0.0727 H   0  0  0  0  0  0  0  0  0  0  0  0
   29.0251  -17.9953   -1.6921 H   0  0  0  0  0  0  0  0  0  0  0  0
   28.7828  -20.4849   -1.8079 H   0  0  0  0  0  0  0  0  0  0  0  0
   28.7828  -20.5670   -0.0431 H   0  0  0  0  0  0  0  0  0  0  0  0
   31.0518  -19.5089    0.0061 H   0  0  0  0  0  0  0  0  0  0  0  0
   31.0518  -19.4268   -1.7587 H   0  0  0  0  0  0  0  0  0  0  0  0
   30.8095  -21.9164   -1.8745 H   0  0  0  0  0  0  0  0  0  0  0  0
   30.8095  -21.9985   -0.1097 H   0  0  0  0  0  0  0  0  0  0  0  0
   33.0785  -20.9404   -0.0605 H   0  0  0  0  0  0  0  0  0  0  0  0
   33.0785  -20.8583   -1.8253 H   0  0  0  0  0  0  0  0  0  0  0  0
   32.8361  -23.3479   -1.9410 H   0  0  0  0  0  0  0  0  0  0  0  0
   32.8361  -23.4300   -0.1762 H   0  0  0  0  0  0  0  0  0  0  0  0
   35.1051  -22.3719   -0.1270 H   0  0  0  0  0  0  0  0  0  0  0  0
   35.1051  -22.2898   -1.8917 H   0  0  0  0  0  0  0  0  0  0  0  0
   34.8630  -24.7793   -2.0065 H   0  0  0  0  0  0  0  0  0  0  0  0
   34.8619  -24.8620   -0.2429 H   0  0  0  0  0  0  0  0  0  0  0  0
   37.1319  -23.8035   -0.1932 H   0  0  0  0  0  0  0  0  0  0  0  0
   37.1316  -23.7218   -1.9577 H   0  0  0  0  0  0  0  0  0  0  0  0
   36.8892  -26.2110   -2.0745 H   0  0  0  0  0  0  0  0  0  0  0  0
   36.8899  -26.2925   -0.3096 H   0  0  0  0  0  0  0  0  0  0  0  0
   39.1580  -25.2367   -0.2604 H   0  0  0  0  0  0  0  0  0  0  0  0
   39.1572  -25.1524   -2.0248 H   0  0  0  0  0  0  0  0  0  0  0  0
   38.9174  -27.6403   -2.1439 H   0  0  0  0  0  0  0  0  0  0  0  0
   38.9153  -27.7259   -0.3801 H   0  0  0  0  0  0  0  0  0  0  0  0
   41.1834  -26.6696   -0.3252 H   0  0  0  0  0  0  0  0  0  0  0  0
   41.1861  -26.5817   -2.0892 H   0  0  0  0  0  0  0  0  0  0  0  0
   40.9425  -29.0720   -2.2121 H   0  0  0  0  0  0  0  0  0  0  0  0
   40.9448  -29.1563   -0.4460 H   0  0  0  0  0  0  0  0  0  0  0  0
   43.2115  -28.1017   -0.3954 H   0  0  0  0  0  0  0  0  0  0  0  0
   43.2118  -28.0124   -2.1595 H   0  0  0  0  0  0  0  0  0  0  0  0
   42.9719  -30.4981   -2.2884 H   0  0  0  0  0  0  0  0  0  0  0  0
   42.9678  -30.5916   -0.5229 H   0  0  0  0  0  0  0  0  0  0  0  0
   45.2372  -29.5324   -0.4656 H   0  0  0  0  0  0  0  0  0  0  0  0
   45.2397  -29.4449   -2.2297 H   0  0  0  0  0  0  0  0  0  0  0  0
   44.9982  -31.9341   -2.3540 H   0  0  0  0  0  0  0  0  0  0  0  0
   44.9942  -32.0210   -0.5904 H   0  0  0  0  0  0  0  0  0  0  0  0
   47.2627  -30.9660   -0.5305 H   0  0  0  0  0  0  0  0  0  0  0  0
   47.2672  -30.8749   -2.2947 H   0  0  0  0  0  0  0  0  0  0  0  0
   47.0261  -33.3626   -2.4252 H   0  0  0  0  0  0  0  0  0  0  0  0
   47.0194  -33.4549   -0.6612 H   0  0  0  0  0  0  0  0  0  0  0  0
   49.2877  -32.3991   -0.5967 H   0  0  0  0  0  0  0  0  0  0  0  0
   49.2947  -32.3044   -2.3606 H   0  0  0  0  0  0  0  0  0  0  0  0
   49.0546  -34.7917   -2.4956 H   0  0  0  0  0  0  0  0  0  0  0  0
   49.0432  -34.8887   -0.7339 H   0  0  0  0  0  0  0  0  0  0  0  0
   51.3134  -33.8324   -0.6619 H   0  0  0  0  0  0  0  0  0  0  0  0
   51.3232  -33.7339   -2.4255 H   0  0  0  0  0  0  0  0  0  0  0  0
   51.0796  -36.2231   -2.5637 H   0  0  0  0  0  0  0  0  0  0  0  0
   51.0724  -36.3201   -0.7998 H   0  0  0  0  0  0  0  0  0  0  0  0
   53.3411  -35.2644   -0.7325 H   0  0  0  0  0  0  0  0  0  0  0  0
   53.3479  -35.1654   -2.4959 H   0  0  0  0  0  0  0  0  0  0  0  0
   53.1079  -37.6513   -2.6382 H   0  0  0  0  0  0  0  0  0  0  0  0
   53.0999  -37.7519   -0.8753 H   0  0  0  0  0  0  0  0  0  0  0  0
   55.3679  -36.6957   -0.8053 H   0  0  0  0  0  0  0  0  0  0  0  0
   55.3752  -36.5964   -2.5673 H   0  0  0  0  0  0  0  0  0  0  0  0
   55.1331  -39.0842   -2.7096 H   0  0  0  0  0  0  0  0  0  0  0  0
   55.1259  -39.1837   -0.9458 H   0  0  0  0  0  0  0  0  0  0  0  0
   57.3949  -38.1265   -0.8770 H   0  0  0  0  0  0  0  0  0  0  0  0
   57.4019  -38.0270   -2.6409 H   0  0  0  0  0  0  0  0  0  0  0  0
   57.1598  -40.5150   -2.7812 H   0  0  0  0  0  0  0  0  0  0  0  0
   57.1530  -40.6142   -1.0202 H   0  0  0  0  0  0  0  0  0  0  0  0
   59.4220  -39.5568   -0.9481 H   0  0  0  0  0  0  0  0  0  0  0  0
   59.4281  -39.4591   -2.7135 H   0  0  0  0  0  0  0  0  0  0  0  0
   59.1863  -41.9465   -2.8551 H   0  0  0  0  0  0  0  0  0  0  0  0
   59.1794  -42.0461   -1.0914 H   0  0  0  0  0  0  0  0  0  0  0  0
   61.4481  -40.9902   -1.0219 H   0  0  0  0  0  0  0  0  0  0  0  0
   61.4554  -40.8883   -2.7855 H   0  0  0  0  0  0  0  0  0  0  0  0
   61.2136  -43.3755   -2.9302 H   0  0  0  0  0  0  0  0  0  0  0  0
   61.2061  -43.4794   -1.1655 H   0  0  0  0  0  0  0  0  0  0  0  0
   63.4750  -42.4219   -1.0968 H   0  0  0  0  0  0  0  0  0  0  0  0
   63.4824  -42.3197   -2.8592 H   0  0  0  0  0  0  0  0  0  0  0  0
   63.2403  -44.8070   -3.0045 H   0  0  0  0  0  0  0  0  0  0  0  0
   63.2332  -44.9089   -1.2415 H   0  0  0  0  0  0  0  0  0  0  0  0
   65.5015  -43.8531   -1.1713 H   0  0  0  0  0  0  0  0  0  0  0  0
   65.5086  -43.7512   -2.9343 H   0  0  0  0  0  0  0  0  0  0  0  0
   65.2669  -46.2381   -3.0792 H   0  0  0  0  0  0  0  0  0  0  0  0
   65.2597  -46.3400   -1.3161 H   0  0  0  0  0  0  0  0  0  0  0  0
   67.5281  -45.2842   -1.2458 H   0  0  0  0  0  0  0  0  0  0  0  0
   67.5351  -45.1821   -3.0090 H   0  0  0  0  0  0  0  0  0  0  0  0
   67.2937  -47.6691   -3.1539 H   0  0  0  0  0  0  0  0  0  0  0  0
   67.2867  -47.7711   -1.3908 H   0  0  0  0  0  0  0  0  0  0  0  0
   69.5548  -46.7169   -1.3201 H   0  0  0  0  0  0  0  0  0  0  0  0
   69.5622  -46.6125   -3.0826 H   0  0  0  0  0  0  0  0  0  0  0  0
   69.3195  -49.0999   -3.2320 H   0  0  0  0  0  0  0  0  0  0  0  0
   69.3126  -49.2044   -1.4670 H   0  0  0  0  0  0  0  0  0  0  0  0
   71.5807  -48.1478   -1.3965 H   0  0  0  0  0  0  0  0  0  0  0  0
   71.5878  -48.0434   -3.1593 H   0  0  0  0  0  0  0  0  0  0  0  0
   71.3482  -50.5304   -3.3077 H   0  0  0  0  0  0  0  0  0  0  0  0
   71.3412  -50.6350   -1.5450 H   0  0  0  0  0  0  0  0  0  0  0  0
   73.6102  -49.5824   -1.4727 H   0  0  0  0  0  0  0  0  0  0  0  0
   73.6174  -49.4755   -3.2354 H   0  0  0  0  0  0  0  0  0  0  0  0
   73.3780  -51.9631   -3.3873 H   0  0  0  0  0  0  0  0  0  0  0  0
   73.3708  -52.0700   -1.6244 H   0  0  0  0  0  0  0  0  0  0  0  0
   75.6408  -51.0160   -1.5526 H   0  0  0  0  0  0  0  0  0  0  0  0
   75.6477  -50.9115   -3.3147 H   0  0  0  0  0  0  0  0  0  0  0  0
   75.4278  -53.4047   -3.4629 H   0  0  0  0  0  0  0  0  0  0  0  0
   75.4229  -53.5083   -1.7002 H   0  0  0  0  0  0  0  0  0  0  0  0
   77.7036  -52.3691   -3.4000 H   0  0  0  0  0  0  0  0  0  0  0  0
   77.6874  -53.9555   -2.6047 H   0  0  0  0  0  0  0  0  0  0  0  0
   77.6988  -52.4732   -1.6289 H   0  0  0  0  0  0  0  0  0  0  0  0
  1  2  1  0  0  0  0
  1 80  1  0  0  0  0
  1 81  1  0  0  0  0
  1 82  1  0  0  0  0
  2  3  1  0  0  0  0
  2  6  1  0  0  0  0
  2 83  1  0  0  0  0
  3  4  1  0  0  0  0
  3 84  1  0  0  0  0
  3 85  1  0  0  0  0
  4  5  1  0  0  0  0
  4 86  1  0  0  0  0
  4 87  1  0  0  0  0
  5 88  1  0  0  0  0
  5 89  1  0  0  0  0
  5 90  1  0  0  0  0
  6  7  1  0  0  0  0
  6 91  1  0  0  0  0
  6 92  1  0  0  0  0
  7  8  1  0  0  0  0
  8  9  1  0  0  0  0
  8 93  1  0  0  0  0
  8 94  1  0  0  0  0
  9 10  1  0  0  0  0
  9 95  1  0  0  0  0
  9 96  1  0  0  0  0
 10 11  1  0  0  0  0
 10 97  1  0  0  0  0
 10 98  1  0  0  0  0
 11 12  1  0  0  0  0
 11 99  1  0  0  0  0
 11100  1  0  0  0  0
 12 13  1  0  0  0  0
 12101  1  0  0  0  0
 12102  1  0  0  0  0
 13 14  1  0  0  0  0
 13103  1  0  0  0  0
 13104  1  0  0  0  0
 14 15  1  0  0  0  0
 14105  1  0  0  0  0
 14106  1  0  0  0  0
 15 16  1  0  0  0  0
 15107  1  0  0  0  0
 15108  1  0  0  0  0
 16 17  1  0  0  0  0
 16109  1  0  0  0  0
 16110  1  0  0  0  0
 17 18  1  0  0  0  0
 17111  1  0  0  0  0
 17112  1  0  0  0  0
 18 19  1  0  0  0  0
 18113  1  0  0  0  0
 18114  1  0  0  0  0
 19 20  1  0  0  0  0
 19115  1  0  0  0  0
 19116  1  0  0  0  0
 20 21  1  0  0  0  0
 20117  1  0  0  0  0
 20118  1  0  0  0  0
 21 22  1  0  0  0  0
 21119  1  0  0  0  0
 21120  1  0  0  0  0
 22 23  1  0  0  0  0
 22121  1  0  0  0  0
 22122  1  0  0  0  0
 23 24  1  0  0  0  0
 23123  1  0  0  0  0
 23124  1  0  0  0  0
 24 25  1  0  0  0  0
 24125  1  0  0  0  0
 24126  1  0  0  0  0
 25 26  1  0  0  0  0
 25127  1  0  0  0  0
 25128  1  0  0  0  0
 26 27  1  0  0  0  0
 26129  1  0  0  0  0
 26130  1  0  0  0  0
 27 28  1  0  0  0  0
 27131  1  0  0  0  0
 27132  1  0  0  0  0
 28 29  1  0  0  0  0
 28133  1  0  0  0  0
 28134  1  0  0  0  0
 29 30  1  0  0  0  0
 29135  1  0  0  0  0
 29136  1  0  0  0  0
 30 31  1  0  0  0  0
 30137  1  0  0  0  0
 30138  1  0  0  0  0
 31 32  1  0  0  0  0
 31139  1  0  0  0  0
 31140  1  0  0  0  0
 32 33  1  0  0  0  0
 32141  1  0  0  0  0
 32142  1  0  0  0  0
 33 34  1  0  0  0  0
 33143  1  0  0  0  0
 33144  1  0  0  0  0
 34 35  1  0  0  0  0
 34145  1  0  0  0  0
 34146  1  0  0  0  0
 35 36  1  0  0  0  0
 35147  1  0  0  0  0
 35148  1  0  0  0  0
 36 37  1  0  0  0  0
 36149  1  0  0  0  0
 36150  1  0  0  0  0
 37 38  1  0  0  0  0
 37151  1  0  0  0  0
 37152  1  0  0  0  0
 38 39  1  0  0  0  0
 38153  1  0  0  0  0
 38154  1  0  0  0  0
 39 40  1  0  0  0  0
 39155  1  0  0  0  0
 39156  1  0  0  0  0
 40 41  1  0  0  0  0
 40157  1  0  0  0  0
 40158  1  0  0  0  0
 41 42  1  0  0  0  0
 41159  1  0  0  0  0
 41160  1  0  0  0  0
 42 43  1  0  0  0  0
 42161  1  0  0  0  0
 42162  1  0  0  0  0
 43 44  1  0  0  0  0
 43163  1  0  0  0  0
 43164  1  0  0  0  0
 44 45  1  0  0  0  0
 44165  1  0  0  0  0
 44166  1  0  0  0  0
 45 46  1  0  0  0  0
 45167  1  0  0  0  0
 45168  1  0  0  0  0
 46 47  1  0  0  0  0
 46169  1  0  0  0  0
 46170  1  0  0  0  0
 47 48  1  0  0  0  0
 47171  1  0  0  0  0
 47172  1  0  0  0  0
 48 49  1  0  0  0  0
 48173  1  0  0  0  0
 48174  1  0  0  0  0
 49 50  1  0  0  0  0
 49175  1  0  0  0  0
 49176  1  0  0  0  0
 50 51  1  0  0  0  0
 50177  1  0  0  0  0
 50178  1  0  0  0  0
 51 52  1  0  0  0  0
 51179  1  0  0  0  0
 51180  1  0  0  0  0
 52 53  1  0  0  0  0
 52181  1  0  0  0  0
 52182  1  0  0  0  0
 53 54  1  0  0  0  0
 53183  1  0  0  0  0
 53184  1  0  0  0  0
 54 55  1  0  0  0  0
 54185  1  0  0  0  0
 54186  1  0  0  0  0
 55 56  1  0  0  0  0
 55187  1  0  0  0  0
 55188  1  0  0  0  0
 56 57  1  0  0  0  0
 56189  1  0  0  0  0
 56190  1  0  0  0  0
 57 58  1  0  0  0  0
 57191  1  0  0  0  0
 57192  1  0  0  0  0
 58 59  1  0  0  0  0
 58193  1  0  0  0  0
 58194  1  0  0  0  0
 59 60  1  0  0  0  0
 59195  1  0  0  0  0
 59196  1  0  0  0  0
 60 61  1  0  0  0  0
 60197  1  0  0  0  0
 60198  1  0  0  0  0
 61 62  1  0  0  0  0
 61199  1  0  0  0  0
 61200  1  0  0  0  0
 62 63  1  0  0  0  0
 62201  1  0  0  0  0
 62202  1  0  0  0  0
 63 64  1  0  0  0  0
 63203  1  0  0  0  0
 63204  1  0  0  0  0
 64 65  1  0  0  0  0
 64205  1  0  0  0  0
 64206  1  0  0  0  0
 65 66  1  0  0  0  0
 65207  1  0  0  0  0
 65208  1  0  0  0  0
 66 67  1  0  0  0  0
 66209  1  0  0  0  0
 66210  1  0  0  0  0
 67 68  1  0  0  0  0
 67211  1  0  0  0  0
 67212  1  0  0  0  0
 68 69  1  0  0  0  0
 68213  1  0  0  0  0
 68214  1  0  0  0  0
 69 70  1  0  0  0  0
 69215  1  0  0  0  0
 69216  1  0  0  0  0
 70 71  1  0  0  0  0
 70217  1  0  0  0  0
 70218  1  0  0  0  0
 71 72  1  0  0  0  0
 71219  1  0  0  0  0
 71220  1  0  0  0  0
 72 73  1  0  0  0  0
 72221  1  0  0  0  0
 72222  1  0  0  0  0
 73 74  1  0  0  0  0
 73223  1  0  0  0  0
 73224  1  0  0  0  0
 74 75  1  0  0  0  0
 74225  1  0  0  0  0
 74226  1  0  0  0  0
 75 76  1  0  0  0  0
 75227  1  0  0  0  0
 75228  1  0  0  0  0
 76 77  1  0  0  0  0
 76229  1  0  0  0  0
 76230  1  0  0  0  0
 77 78  1  0  0  0  0
 77231  1  0  0  0  0
 77232  1  0  0  0  0
 78 79  1  0  0  0  0
 78233  1  0  0  0  0
 78234  1  0  0  0  0
 79235  1  0  0  0  0
 79236  1  0  0  0  0
 79237  1  0  0  0  0
M  END
$$$$
