
 OpenBabel04232216533D

227226  0  0  0  0  0  0  0  0999 V2000
   16.4870   -2.5544  -19.3218 C   0  0  0  0  0  0  0  0  0  0  0  0
   15.9636   -3.7361  -18.5365 C   0  0  0  0  0  0  0  0  0  0  0  0
   16.4561   -3.6639  -17.0899 C   0  0  0  0  0  0  0  0  0  0  0  0
   15.9349   -4.8430  -16.2947 C   0  0  0  0  0  0  0  0  0  0  0  0
   16.4297   -4.7589  -14.8661 C   0  0  0  0  0  0  0  0  0  0  0  0
   15.9006   -5.9422  -14.0863 C   0  0  0  0  0  0  0  0  0  0  0  0
   16.3964   -5.8667  -12.6625 C   0  0  0  0  0  0  0  0  0  0  0  0
   15.8778   -7.0554  -11.8940 C   0  0  0  0  0  0  0  0  0  0  0  0
   16.4404   -6.9488  -10.6110 O   0  0  0  0  0  0  0  0  0  0  0  0
   15.9167   -8.0739   -9.8797 O   0  0  0  0  0  0  0  0  0  0  0  0
   16.2974   -7.9399   -8.5023 O   0  0  0  0  0  0  0  0  0  0  0  0
   15.9138   -6.6271   -8.0166 O   0  0  0  0  0  0  0  0  0  0  0  0
   16.2975   -6.4886   -6.6397 O   0  0  0  0  0  0  0  0  0  0  0  0
   15.6734   -7.5424   -5.8782 O   0  0  0  0  0  0  0  0  0  0  0  0
   16.2708   -7.4858   -4.6013 C   0  0  0  0  0  0  0  0  0  0  0  0
   15.8364   -8.5929   -3.8180 O   0  0  0  0  0  0  0  0  0  0  0  0
   16.2857   -9.8092   -4.4044 C   0  0  0  0  0  0  0  0  0  0  0  0
   17.7054   -9.8547   -4.4054 O   0  0  0  0  0  0  0  0  0  0  0  0
   18.1775  -11.0478   -5.0075 C   0  0  0  0  0  0  0  0  0  0  0  0
   19.5981  -11.0488   -5.0108 O   0  0  0  0  0  0  0  0  0  0  0  0
   20.0670  -12.2575   -5.5796 C   0  0  0  0  0  0  0  0  0  0  0  0
   21.5767  -12.2280   -5.5645 C   0  0  0  0  0  0  0  0  0  0  0  0
   22.0990  -13.5216   -6.1555 C   0  0  0  0  0  0  0  0  0  0  0  0
   23.6132  -13.5254   -6.1536 C   0  0  0  0  0  0  0  0  0  0  0  0
   24.1190  -14.8255   -6.7496 C   0  0  0  0  0  0  0  0  0  0  0  0
   25.6355  -14.8316   -6.7502 C   0  0  0  0  0  0  0  0  0  0  0  0
   26.1442  -16.1318   -7.3430 C   0  0  0  0  0  0  0  0  0  0  0  0
   27.6605  -16.1395   -7.3406 C   0  0  0  0  0  0  0  0  0  0  0  0
   28.1716  -17.4389   -7.9343 C   0  0  0  0  0  0  0  0  0  0  0  0
   29.6888  -17.4436   -7.9316 C   0  0  0  0  0  0  0  0  0  0  0  0
   30.1979  -18.7465   -8.5242 C   0  0  0  0  0  0  0  0  0  0  0  0
   31.7144  -18.7532   -8.5242 C   0  0  0  0  0  0  0  0  0  0  0  0
   32.2251  -20.0522   -9.1179 C   0  0  0  0  0  0  0  0  0  0  0  0
   33.7420  -20.0587   -9.1144 C   0  0  0  0  0  0  0  0  0  0  0  0
   34.2525  -21.3582   -9.7082 C   0  0  0  0  0  0  0  0  0  0  0  0
   35.7691  -21.3640   -9.7066 C   0  0  0  0  0  0  0  0  0  0  0  0
   36.2792  -22.6625  -10.3018 C   0  0  0  0  0  0  0  0  0  0  0  0
   37.7959  -22.6678  -10.3021 C   0  0  0  0  0  0  0  0  0  0  0  0
   38.3061  -23.9669  -10.8959 C   0  0  0  0  0  0  0  0  0  0  0  0
   39.8228  -23.9715  -10.8978 C   0  0  0  0  0  0  0  0  0  0  0  0
   40.3327  -25.2706  -11.4925 C   0  0  0  0  0  0  0  0  0  0  0  0
   41.8492  -25.2739  -11.4960 C   0  0  0  0  0  0  0  0  0  0  0  0
   42.3618  -26.5707  -12.0915 C   0  0  0  0  0  0  0  0  0  0  0  0
   43.8782  -26.5707  -12.0950 C   0  0  0  0  0  0  0  0  0  0  0  0
   44.3854  -27.8713  -12.6878 C   0  0  0  0  0  0  0  0  0  0  0  0
   45.9017  -27.8783  -12.6903 C   0  0  0  0  0  0  0  0  0  0  0  0
   46.4118  -29.1768  -13.2856 C   0  0  0  0  0  0  0  0  0  0  0  0
   47.9283  -29.1826  -13.2868 C   0  0  0  0  0  0  0  0  0  0  0  0
   48.4384  -30.4798  -13.8810 C   0  0  0  0  0  0  0  0  0  0  0  0
   49.9557  -30.4852  -13.8827 C   0  0  0  0  0  0  0  0  0  0  0  0
   50.4658  -31.7835  -14.4783 C   0  0  0  0  0  0  0  0  0  0  0  0
   51.9824  -31.7876  -14.4803 C   0  0  0  0  0  0  0  0  0  0  0  0
   52.4927  -33.0854  -15.0772 C   0  0  0  0  0  0  0  0  0  0  0  0
   54.0093  -33.0903  -15.0773 C   0  0  0  0  0  0  0  0  0  0  0  0
   54.5192  -34.3870  -15.6765 C   0  0  0  0  0  0  0  0  0  0  0  0
   56.0358  -34.3914  -15.6784 C   0  0  0  0  0  0  0  0  0  0  0  0
   56.5460  -35.6872  -16.2791 C   0  0  0  0  0  0  0  0  0  0  0  0
   58.0627  -35.6924  -16.2794 C   0  0  0  0  0  0  0  0  0  0  0  0
   58.5728  -36.9882  -16.8805 C   0  0  0  0  0  0  0  0  0  0  0  0
   60.0896  -36.9928  -16.8824 C   0  0  0  0  0  0  0  0  0  0  0  0
   60.6008  -38.2883  -17.4839 C   0  0  0  0  0  0  0  0  0  0  0  0
   62.1180  -38.2919  -17.4852 C   0  0  0  0  0  0  0  0  0  0  0  0
   62.6325  -39.5861  -18.0854 C   0  0  0  0  0  0  0  0  0  0  0  0
   64.1497  -39.5884  -18.0859 C   0  0  0  0  0  0  0  0  0  0  0  0
   64.6565  -40.8847  -18.6876 C   0  0  0  0  0  0  0  0  0  0  0  0
   66.1723  -40.8916  -18.6898 C   0  0  0  0  0  0  0  0  0  0  0  0
   66.6802  -42.1898  -19.2901 C   0  0  0  0  0  0  0  0  0  0  0  0
   68.1968  -42.2002  -19.2893 C   0  0  0  0  0  0  0  0  0  0  0  0
   68.7067  -43.4913  -19.8923 C   0  0  0  0  0  0  0  0  0  0  0  0
   70.2237  -43.4938  -19.8941 C   0  0  0  0  0  0  0  0  0  0  0  0
   70.7312  -44.7890  -20.4959 C   0  0  0  0  0  0  0  0  0  0  0  0
   72.2508  -44.7943  -20.4952 C   0  0  0  0  0  0  0  0  0  0  0  0
   72.7616  -46.0901  -21.0961 C   0  0  0  0  0  0  0  0  0  0  0  0
   74.2789  -46.0976  -21.0971 C   0  0  0  0  0  0  0  0  0  0  0  0
   74.7909  -47.3938  -21.6986 C   0  0  0  0  0  0  0  0  0  0  0  0
   76.3095  -47.4001  -21.7016 C   0  0  0  0  0  0  0  0  0  0  0  0
   76.8241  -48.6963  -22.3026 C   0  0  0  0  0  0  0  0  0  0  0  0
   78.3424  -48.6983  -22.3035 C   0  0  0  0  0  0  0  0  0  0  0  0
   78.8536  -49.9909  -22.9008 C   0  0  0  0  0  0  0  0  0  0  0  0
   80.3801  -50.0193  -22.9117 C   0  0  0  0  0  0  0  0  0  0  0  0
   80.8940  -51.3149  -23.5102 C   0  0  0  0  0  0  0  0  0  0  0  0
   16.1341   -2.6060  -20.3571 H   0  0  0  0  0  0  0  0  0  0  0  0
   17.5815   -2.5469  -19.3286 H   0  0  0  0  0  0  0  0  0  0  0  0
   16.1403   -1.6129  -18.8840 H   0  0  0  0  0  0  0  0  0  0  0  0
   16.3046   -4.6708  -18.9895 H   0  0  0  0  0  0  0  0  0  0  0  0
   14.8700   -3.7410  -18.5472 H   0  0  0  0  0  0  0  0  0  0  0  0
   16.1201   -2.7283  -16.6243 H   0  0  0  0  0  0  0  0  0  0  0  0
   17.5537   -3.6601  -17.0664 H   0  0  0  0  0  0  0  0  0  0  0  0
   16.2702   -5.7845  -16.7489 H   0  0  0  0  0  0  0  0  0  0  0  0
   14.8369   -4.8530  -16.3071 H   0  0  0  0  0  0  0  0  0  0  0  0
   16.0926   -3.8241  -14.4011 H   0  0  0  0  0  0  0  0  0  0  0  0
   17.5268   -4.7565  -14.8438 H   0  0  0  0  0  0  0  0  0  0  0  0
   16.2369   -6.8793  -14.5446 H   0  0  0  0  0  0  0  0  0  0  0  0
   14.8048   -5.9470  -14.0977 H   0  0  0  0  0  0  0  0  0  0  0  0
   16.0705   -4.9358  -12.1801 H   0  0  0  0  0  0  0  0  0  0  0  0
   17.4938   -5.8530  -12.6282 H   0  0  0  0  0  0  0  0  0  0  0  0
   16.2072   -7.9936  -12.3502 H   0  0  0  0  0  0  0  0  0  0  0  0
   14.7826   -7.0397  -11.8403 H   0  0  0  0  0  0  0  0  0  0  0  0
   15.9412   -6.5686   -4.1172 H   0  0  0  0  0  0  0  0  0  0  0  0
   17.3694   -7.4666   -4.6702 H   0  0  0  0  0  0  0  0  0  0  0  0
   15.8947   -9.9214   -5.4265 H   0  0  0  0  0  0  0  0  0  0  0  0
   15.8959  -10.6357   -3.8046 H   0  0  0  0  0  0  0  0  0  0  0  0
   17.8155  -11.1065   -6.0427 H   0  0  0  0  0  0  0  0  0  0  0  0
   17.8150  -11.9036   -4.4304 H   0  0  0  0  0  0  0  0  0  0  0  0
   19.6991  -12.3501   -6.6081 H   0  0  0  0  0  0  0  0  0  0  0  0
   19.6995  -13.1045   -4.9892 H   0  0  0  0  0  0  0  0  0  0  0  0
   21.9382  -12.0931   -4.5375 H   0  0  0  0  0  0  0  0  0  0  0  0
   21.9407  -11.3626   -6.1320 H   0  0  0  0  0  0  0  0  0  0  0  0
   21.7254  -13.6401   -7.1806 H   0  0  0  0  0  0  0  0  0  0  0  0
   21.7234  -14.3744   -5.5758 H   0  0  0  0  0  0  0  0  0  0  0  0
   23.9861  -13.4107   -5.1288 H   0  0  0  0  0  0  0  0  0  0  0  0
   23.9906  -12.6760   -6.7354 H   0  0  0  0  0  0  0  0  0  0  0  0
   23.7447  -14.9395   -7.7735 H   0  0  0  0  0  0  0  0  0  0  0  0
   23.7408  -15.6759   -6.1689 H   0  0  0  0  0  0  0  0  0  0  0  0
   26.0102  -14.7149   -5.7259 H   0  0  0  0  0  0  0  0  0  0  0  0
   26.0118  -13.9811   -7.3322 H   0  0  0  0  0  0  0  0  0  0  0  0
   25.7698  -16.2475   -8.3679 H   0  0  0  0  0  0  0  0  0  0  0  0
   25.7646  -16.9812   -6.7614 H   0  0  0  0  0  0  0  0  0  0  0  0
   28.0336  -16.0248   -6.3156 H   0  0  0  0  0  0  0  0  0  0  0  0
   28.0397  -15.2890   -7.9212 H   0  0  0  0  0  0  0  0  0  0  0  0
   27.7980  -17.5543   -8.9589 H   0  0  0  0  0  0  0  0  0  0  0  0
   27.7935  -18.2888   -7.3534 H   0  0  0  0  0  0  0  0  0  0  0  0
   30.0611  -17.3307   -6.9080 H   0  0  0  0  0  0  0  0  0  0  0  0
   30.0679  -16.5947   -8.5120 H   0  0  0  0  0  0  0  0  0  0  0  0
   29.8236  -18.8591   -9.5500 H   0  0  0  0  0  0  0  0  0  0  0  0
   29.8176  -19.5966   -7.9434 H   0  0  0  0  0  0  0  0  0  0  0  0
   32.0876  -18.6381   -7.4992 H   0  0  0  0  0  0  0  0  0  0  0  0
   32.0924  -17.9029   -9.1051 H   0  0  0  0  0  0  0  0  0  0  0  0
   31.8530  -20.1667  -10.1436 H   0  0  0  0  0  0  0  0  0  0  0  0
   31.8464  -20.9034   -8.5384 H   0  0  0  0  0  0  0  0  0  0  0  0
   34.1147  -19.9446   -8.0891 H   0  0  0  0  0  0  0  0  0  0  0  0
   34.1213  -19.2082   -9.6943 H   0  0  0  0  0  0  0  0  0  0  0  0
   33.8790  -21.4728  -10.7335 H   0  0  0  0  0  0  0  0  0  0  0  0
   33.8743  -22.2084   -9.1279 H   0  0  0  0  0  0  0  0  0  0  0  0
   36.1426  -21.2504   -8.6814 H   0  0  0  0  0  0  0  0  0  0  0  0
   36.1473  -20.5128  -10.2861 H   0  0  0  0  0  0  0  0  0  0  0  0
   35.9046  -22.7768  -11.3266 H   0  0  0  0  0  0  0  0  0  0  0  0
   35.9020  -23.5135   -9.7214 H   0  0  0  0  0  0  0  0  0  0  0  0
   38.1706  -22.5521   -9.2776 H   0  0  0  0  0  0  0  0  0  0  0  0
   38.1727  -21.8173  -10.8835 H   0  0  0  0  0  0  0  0  0  0  0  0
   37.9303  -24.0833  -11.9198 H   0  0  0  0  0  0  0  0  0  0  0  0
   37.9304  -24.8173  -10.3136 H   0  0  0  0  0  0  0  0  0  0  0  0
   40.1985  -23.8557   -9.8736 H   0  0  0  0  0  0  0  0  0  0  0  0
   40.1988  -23.1206  -11.4793 H   0  0  0  0  0  0  0  0  0  0  0  0
   39.9566  -25.3867  -12.5164 H   0  0  0  0  0  0  0  0  0  0  0  0
   39.9577  -26.1214  -10.9103 H   0  0  0  0  0  0  0  0  0  0  0  0
   42.2253  -25.1568  -10.4722 H   0  0  0  0  0  0  0  0  0  0  0  0
   42.2232  -24.4227  -12.0782 H   0  0  0  0  0  0  0  0  0  0  0  0
   41.9853  -26.6876  -13.1153 H   0  0  0  0  0  0  0  0  0  0  0  0
   41.9914  -27.4247  -11.5107 H   0  0  0  0  0  0  0  0  0  0  0  0
   44.2551  -26.4520  -11.0715 H   0  0  0  0  0  0  0  0  0  0  0  0
   44.2529  -25.7204  -12.6783 H   0  0  0  0  0  0  0  0  0  0  0  0
   44.0074  -27.9875  -13.7111 H   0  0  0  0  0  0  0  0  0  0  0  0
   44.0078  -28.7205  -12.1047 H   0  0  0  0  0  0  0  0  0  0  0  0
   46.2763  -27.7641  -11.6656 H   0  0  0  0  0  0  0  0  0  0  0  0
   46.2783  -27.0271  -13.2710 H   0  0  0  0  0  0  0  0  0  0  0  0
   46.0365  -29.2913  -14.3104 H   0  0  0  0  0  0  0  0  0  0  0  0
   46.0344  -30.0276  -12.7059 H   0  0  0  0  0  0  0  0  0  0  0  0
   48.3043  -29.0660  -12.2628 H   0  0  0  0  0  0  0  0  0  0  0  0
   48.3055  -28.3316  -13.8691 H   0  0  0  0  0  0  0  0  0  0  0  0
   48.0628  -30.5936  -14.9056 H   0  0  0  0  0  0  0  0  0  0  0  0
   48.0621  -31.3317  -13.3012 H   0  0  0  0  0  0  0  0  0  0  0  0
   50.3305  -30.3709  -12.8582 H   0  0  0  0  0  0  0  0  0  0  0  0
   50.3320  -29.6339  -14.4631 H   0  0  0  0  0  0  0  0  0  0  0  0
   50.0900  -31.8983  -15.5025 H   0  0  0  0  0  0  0  0  0  0  0  0
   50.0901  -32.6345  -13.8972 H   0  0  0  0  0  0  0  0  0  0  0  0
   52.3580  -31.6741  -13.4559 H   0  0  0  0  0  0  0  0  0  0  0  0
   52.3584  -30.9358  -15.0602 H   0  0  0  0  0  0  0  0  0  0  0  0
   52.1190  -33.1988  -16.1023 H   0  0  0  0  0  0  0  0  0  0  0  0
   52.1158  -33.9374  -14.4981 H   0  0  0  0  0  0  0  0  0  0  0  0
   54.3840  -32.9788  -14.0524 H   0  0  0  0  0  0  0  0  0  0  0  0
   54.3859  -32.2374  -15.6555 H   0  0  0  0  0  0  0  0  0  0  0  0
   54.1435  -34.4989  -16.7010 H   0  0  0  0  0  0  0  0  0  0  0  0
   54.1432  -35.2397  -15.0978 H   0  0  0  0  0  0  0  0  0  0  0  0
   56.4114  -34.2806  -14.6537 H   0  0  0  0  0  0  0  0  0  0  0  0
   56.4118  -33.5379  -16.2561 H   0  0  0  0  0  0  0  0  0  0  0  0
   56.1717  -35.7973  -17.3044 H   0  0  0  0  0  0  0  0  0  0  0  0
   56.1691  -36.5409  -15.7025 H   0  0  0  0  0  0  0  0  0  0  0  0
   58.4373  -35.5823  -15.2542 H   0  0  0  0  0  0  0  0  0  0  0  0
   58.4394  -34.8385  -16.8560 H   0  0  0  0  0  0  0  0  0  0  0  0
   58.1969  -37.0987  -17.9051 H   0  0  0  0  0  0  0  0  0  0  0  0
   58.1967  -37.8417  -16.3029 H   0  0  0  0  0  0  0  0  0  0  0  0
   60.4648  -36.8823  -15.8575 H   0  0  0  0  0  0  0  0  0  0  0  0
   60.4651  -36.1387  -17.4594 H   0  0  0  0  0  0  0  0  0  0  0  0
   60.2255  -38.3984  -18.5088 H   0  0  0  0  0  0  0  0  0  0  0  0
   60.2245  -39.1422  -16.9072 H   0  0  0  0  0  0  0  0  0  0  0  0
   62.4927  -38.1812  -16.4603 H   0  0  0  0  0  0  0  0  0  0  0  0
   62.4932  -37.4380  -18.0624 H   0  0  0  0  0  0  0  0  0  0  0  0
   62.2586  -39.6988  -19.1105 H   0  0  0  0  0  0  0  0  0  0  0  0
   62.2581  -40.4409  -17.5087 H   0  0  0  0  0  0  0  0  0  0  0  0
   64.5251  -39.4769  -17.0605 H   0  0  0  0  0  0  0  0  0  0  0  0
   64.5262  -38.7352  -18.6640 H   0  0  0  0  0  0  0  0  0  0  0  0
   64.2790  -40.9951  -19.7108 H   0  0  0  0  0  0  0  0  0  0  0  0
   64.2790  -41.7382  -18.1101 H   0  0  0  0  0  0  0  0  0  0  0  0
   66.5506  -40.7819  -17.6663 H   0  0  0  0  0  0  0  0  0  0  0  0
   66.5505  -40.0411  -19.2698 H   0  0  0  0  0  0  0  0  0  0  0  0
   66.3057  -42.2994  -20.3155 H   0  0  0  0  0  0  0  0  0  0  0  0
   66.3021  -43.0431  -18.7141 H   0  0  0  0  0  0  0  0  0  0  0  0
   68.5727  -42.0862  -18.2647 H   0  0  0  0  0  0  0  0  0  0  0  0
   68.5752  -41.3461  -19.8681 H   0  0  0  0  0  0  0  0  0  0  0  0
   68.3320  -43.5993  -20.9181 H   0  0  0  0  0  0  0  0  0  0  0  0
   68.3306  -44.3467  -19.3182 H   0  0  0  0  0  0  0  0  0  0  0  0
   70.5988  -43.3825  -18.8682 H   0  0  0  0  0  0  0  0  0  0  0  0
   70.5989  -42.6380  -20.4710 H   0  0  0  0  0  0  0  0  0  0  0  0
   70.3562  -44.9015  -21.5194 H   0  0  0  0  0  0  0  0  0  0  0  0
   70.3559  -45.6423  -19.9189 H   0  0  0  0  0  0  0  0  0  0  0  0
   72.6246  -44.6840  -19.4699 H   0  0  0  0  0  0  0  0  0  0  0  0
   72.6271  -43.9408  -21.0722 H   0  0  0  0  0  0  0  0  0  0  0  0
   72.3880  -46.1954  -22.1217 H   0  0  0  0  0  0  0  0  0  0  0  0
   72.3828  -46.9445  -20.5216 H   0  0  0  0  0  0  0  0  0  0  0  0
   74.6527  -45.9870  -20.0718 H   0  0  0  0  0  0  0  0  0  0  0  0
   74.6546  -45.2436  -21.6737 H   0  0  0  0  0  0  0  0  0  0  0  0
   74.4137  -47.5037  -22.7229 H   0  0  0  0  0  0  0  0  0  0  0  0
   74.4137  -48.2467  -21.1211 H   0  0  0  0  0  0  0  0  0  0  0  0
   76.6832  -47.2880  -20.6764 H   0  0  0  0  0  0  0  0  0  0  0  0
   76.6833  -46.5451  -22.2784 H   0  0  0  0  0  0  0  0  0  0  0  0
   76.4463  -48.8057  -23.3263 H   0  0  0  0  0  0  0  0  0  0  0  0
   76.4462  -49.5482  -21.7247 H   0  0  0  0  0  0  0  0  0  0  0  0
   78.7180  -48.5906  -21.2814 H   0  0  0  0  0  0  0  0  0  0  0  0
   78.7182  -47.8501  -22.8837 H   0  0  0  0  0  0  0  0  0  0  0  0
   78.4814  -50.1108  -23.9281 H   0  0  0  0  0  0  0  0  0  0  0  0
   78.4793  -50.8512  -22.3279 H   0  0  0  0  0  0  0  0  0  0  0  0
   80.7607  -49.9131  -21.8891 H   0  0  0  0  0  0  0  0  0  0  0  0
   80.7631  -49.1717  -23.4918 H   0  0  0  0  0  0  0  0  0  0  0  0
   80.5443  -52.1765  -22.9319 H   0  0  0  0  0  0  0  0  0  0  0  0
   81.9882  -51.3254  -23.5134 H   0  0  0  0  0  0  0  0  0  0  0  0
   80.5466  -51.4317  -24.5421 H   0  0  0  0  0  0  0  0  0  0  0  0
  1  2  1  0  0  0  0
  1 82  1  0  0  0  0
  1 83  1  0  0  0  0
  1 84  1  0  0  0  0
  2  3  1  0  0  0  0
  2 85  1  0  0  0  0
  2 86  1  0  0  0  0
  3  4  1  0  0  0  0
  3 87  1  0  0  0  0
  3 88  1  0  0  0  0
  4  5  1  0  0  0  0
  4 89  1  0  0  0  0
  4 90  1  0  0  0  0
  5  6  1  0  0  0  0
  5 91  1  0  0  0  0
  5 92  1  0  0  0  0
  6  7  1  0  0  0  0
  6 93  1  0  0  0  0
  6 94  1  0  0  0  0
  7  8  1  0  0  0  0
  7 95  1  0  0  0  0
  7 96  1  0  0  0  0
  8  9  1  0  0  0  0
  8 97  1  0  0  0  0
  8 98  1  0  0  0  0
  9 10  1  0  0  0  0
 10 11  1  0  0  0  0
 11 12  1  0  0  0  0
 12 13  1  0  0  0  0
 13 14  1  0  0  0  0
 14 15  1  0  0  0  0
 15 16  1  0  0  0  0
 15 99  1  0  0  0  0
 15100  1  0  0  0  0
 16 17  1  0  0  0  0
 17 18  1  0  0  0  0
 17101  1  0  0  0  0
 17102  1  0  0  0  0
 18 19  1  0  0  0  0
 19 20  1  0  0  0  0
 19103  1  0  0  0  0
 19104  1  0  0  0  0
 20 21  1  0  0  0  0
 21 22  1  0  0  0  0
 21105  1  0  0  0  0
 21106  1  0  0  0  0
 22 23  1  0  0  0  0
 22107  1  0  0  0  0
 22108  1  0  0  0  0
 23 24  1  0  0  0  0
 23109  1  0  0  0  0
 23110  1  0  0  0  0
 24 25  1  0  0  0  0
 24111  1  0  0  0  0
 24112  1  0  0  0  0
 25 26  1  0  0  0  0
 25113  1  0  0  0  0
 25114  1  0  0  0  0
 26 27  1  0  0  0  0
 26115  1  0  0  0  0
 26116  1  0  0  0  0
 27 28  1  0  0  0  0
 27117  1  0  0  0  0
 27118  1  0  0  0  0
 28 29  1  0  0  0  0
 28119  1  0  0  0  0
 28120  1  0  0  0  0
 29 30  1  0  0  0  0
 29121  1  0  0  0  0
 29122  1  0  0  0  0
 30 31  1  0  0  0  0
 30123  1  0  0  0  0
 30124  1  0  0  0  0
 31 32  1  0  0  0  0
 31125  1  0  0  0  0
 31126  1  0  0  0  0
 32 33  1  0  0  0  0
 32127  1  0  0  0  0
 32128  1  0  0  0  0
 33 34  1  0  0  0  0
 33129  1  0  0  0  0
 33130  1  0  0  0  0
 34 35  1  0  0  0  0
 34131  1  0  0  0  0
 34132  1  0  0  0  0
 35 36  1  0  0  0  0
 35133  1  0  0  0  0
 35134  1  0  0  0  0
 36 37  1  0  0  0  0
 36135  1  0  0  0  0
 36136  1  0  0  0  0
 37 38  1  0  0  0  0
 37137  1  0  0  0  0
 37138  1  0  0  0  0
 38 39  1  0  0  0  0
 38139  1  0  0  0  0
 38140  1  0  0  0  0
 39 40  1  0  0  0  0
 39141  1  0  0  0  0
 39142  1  0  0  0  0
 40 41  1  0  0  0  0
 40143  1  0  0  0  0
 40144  1  0  0  0  0
 41 42  1  0  0  0  0
 41145  1  0  0  0  0
 41146  1  0  0  0  0
 42 43  1  0  0  0  0
 42147  1  0  0  0  0
 42148  1  0  0  0  0
 43 44  1  0  0  0  0
 43149  1  0  0  0  0
 43150  1  0  0  0  0
 44 45  1  0  0  0  0
 44151  1  0  0  0  0
 44152  1  0  0  0  0
 45 46  1  0  0  0  0
 45153  1  0  0  0  0
 45154  1  0  0  0  0
 46 47  1  0  0  0  0
 46155  1  0  0  0  0
 46156  1  0  0  0  0
 47 48  1  0  0  0  0
 47157  1  0  0  0  0
 47158  1  0  0  0  0
 48 49  1  0  0  0  0
 48159  1  0  0  0  0
 48160  1  0  0  0  0
 49 50  1  0  0  0  0
 49161  1  0  0  0  0
 49162  1  0  0  0  0
 50 51  1  0  0  0  0
 50163  1  0  0  0  0
 50164  1  0  0  0  0
 51 52  1  0  0  0  0
 51165  1  0  0  0  0
 51166  1  0  0  0  0
 52 53  1  0  0  0  0
 52167  1  0  0  0  0
 52168  1  0  0  0  0
 53 54  1  0  0  0  0
 53169  1  0  0  0  0
 53170  1  0  0  0  0
 54 55  1  0  0  0  0
 54171  1  0  0  0  0
 54172  1  0  0  0  0
 55 56  1  0  0  0  0
 55173  1  0  0  0  0
 55174  1  0  0  0  0
 56 57  1  0  0  0  0
 56175  1  0  0  0  0
 56176  1  0  0  0  0
 57 58  1  0  0  0  0
 57177  1  0  0  0  0
 57178  1  0  0  0  0
 58 59  1  0  0  0  0
 58179  1  0  0  0  0
 58180  1  0  0  0  0
 59 60  1  0  0  0  0
 59181  1  0  0  0  0
 59182  1  0  0  0  0
 60 61  1  0  0  0  0
 60183  1  0  0  0  0
 60184  1  0  0  0  0
 61 62  1  0  0  0  0
 61185  1  0  0  0  0
 61186  1  0  0  0  0
 62 63  1  0  0  0  0
 62187  1  0  0  0  0
 62188  1  0  0  0  0
 63 64  1  0  0  0  0
 63189  1  0  0  0  0
 63190  1  0  0  0  0
 64 65  1  0  0  0  0
 64191  1  0  0  0  0
 64192  1  0  0  0  0
 65 66  1  0  0  0  0
 65193  1  0  0  0  0
 65194  1  0  0  0  0
 66 67  1  0  0  0  0
 66195  1  0  0  0  0
 66196  1  0  0  0  0
 67 68  1  0  0  0  0
 67197  1  0  0  0  0
 67198  1  0  0  0  0
 68 69  1  0  0  0  0
 68199  1  0  0  0  0
 68200  1  0  0  0  0
 69 70  1  0  0  0  0
 69201  1  0  0  0  0
 69202  1  0  0  0  0
 70 71  1  0  0  0  0
 70203  1  0  0  0  0
 70204  1  0  0  0  0
 71 72  1  0  0  0  0
 71205  1  0  0  0  0
 71206  1  0  0  0  0
 72 73  1  0  0  0  0
 72207  1  0  0  0  0
 72208  1  0  0  0  0
 73 74  1  0  0  0  0
 73209  1  0  0  0  0
 73210  1  0  0  0  0
 74 75  1  0  0  0  0
 74211  1  0  0  0  0
 74212  1  0  0  0  0
 75 76  1  0  0  0  0
 75213  1  0  0  0  0
 75214  1  0  0  0  0
 76 77  1  0  0  0  0
 76215  1  0  0  0  0
 76216  1  0  0  0  0
 77 78  1  0  0  0  0
 77217  1  0  0  0  0
 77218  1  0  0  0  0
 78 79  1  0  0  0  0
 78219  1  0  0  0  0
 78220  1  0  0  0  0
 79 80  1  0  0  0  0
 79221  1  0  0  0  0
 79222  1  0  0  0  0
 80 81  1  0  0  0  0
 80223  1  0  0  0  0
 80224  1  0  0  0  0
 81225  1  0  0  0  0
 81226  1  0  0  0  0
 81227  1  0  0  0  0
M  END
$$$$
