
 OpenBabel04232217033D

 84 83  0  0  0  0  0  0  0  0999 V2000
    6.3374   -4.5941   -4.9117 S   0  0  0  0  0  0  0  0  0  0  0  0
    8.0042   -4.8924   -5.0423 O   0  0  0  0  0  0  0  0  0  0  0  0
    8.2943   -6.4122   -4.5550 S   0  0  0  0  0  0  0  0  0  0  0  0
   10.3611   -6.5055   -4.6774 S   0  0  0  0  0  0  0  0  0  0  0  0
   11.1255   -5.0918   -3.3984 S   0  0  0  0  0  0  0  0  0  0  0  0
   10.6247   -5.5950   -1.8820 N   0  0  0  0  0  0  0  0  0  0  0  0
   11.2670   -4.4980   -0.8160 S   0  0  0  0  0  0  0  0  0  0  0  0
   10.5618   -5.1402    0.9989 S   0  0  0  0  0  0  0  0  0  0  0  0
   11.3095   -7.0432    1.4097 S   0  0  0  0  0  0  0  0  0  0  0  0
   13.3880   -6.9926    1.5118 S   0  0  0  0  0  0  0  0  0  0  0  0
   14.0384   -8.9624    1.8672 S   0  0  0  0  0  0  0  0  0  0  0  0
   16.1522   -8.9716    1.8701 S   0  0  0  0  0  0  0  0  0  0  0  0
   16.8437  -10.9315    2.2601 S   0  0  0  0  0  0  0  0  0  0  0  0
   18.9590  -10.9253    2.2585 S   0  0  0  0  0  0  0  0  0  0  0  0
   19.6541  -12.8826    2.6469 S   0  0  0  0  0  0  0  0  0  0  0  0
   21.7664  -12.8713    2.6446 S   0  0  0  0  0  0  0  0  0  0  0  0
   22.4594  -14.8274    3.0327 S   0  0  0  0  0  0  0  0  0  0  0  0
   24.5700  -14.8152    3.0303 S   0  0  0  0  0  0  0  0  0  0  0  0
   25.2613  -16.7708    3.4183 S   0  0  0  0  0  0  0  0  0  0  0  0
   27.3711  -16.7581    3.4158 S   0  0  0  0  0  0  0  0  0  0  0  0
   28.0619  -18.7133    3.8038 S   0  0  0  0  0  0  0  0  0  0  0  0
   30.1714  -18.7004    3.8012 S   0  0  0  0  0  0  0  0  0  0  0  0
   30.8621  -20.6554    4.1891 S   0  0  0  0  0  0  0  0  0  0  0  0
   32.9715  -20.6425    4.1866 S   0  0  0  0  0  0  0  0  0  0  0  0
   33.6621  -22.5975    4.5745 S   0  0  0  0  0  0  0  0  0  0  0  0
   35.7715  -22.5845    4.5719 S   0  0  0  0  0  0  0  0  0  0  0  0
   36.4622  -24.5394    4.9598 S   0  0  0  0  0  0  0  0  0  0  0  0
   38.5717  -24.5265    4.9572 S   0  0  0  0  0  0  0  0  0  0  0  0
   39.2617  -26.4822    5.3453 S   0  0  0  0  0  0  0  0  0  0  0  0
   41.3710  -26.4693    5.3427 S   0  0  0  0  0  0  0  0  0  0  0  0
   42.0609  -28.4257    5.7309 S   0  0  0  0  0  0  0  0  0  0  0  0
   44.1711  -28.4113    5.7280 S   0  0  0  0  0  0  0  0  0  0  0  0
   44.8619  -30.3666    6.1159 S   0  0  0  0  0  0  0  0  0  0  0  0
   46.9715  -30.3525    6.1132 S   0  0  0  0  0  0  0  0  0  0  0  0
   47.6622  -32.3077    6.5012 S   0  0  0  0  0  0  0  0  0  0  0  0
   49.7716  -32.2947    6.4986 S   0  0  0  0  0  0  0  0  0  0  0  0
   50.4621  -34.2498    6.8865 S   0  0  0  0  0  0  0  0  0  0  0  0
   52.5714  -34.2367    6.8839 S   0  0  0  0  0  0  0  0  0  0  0  0
   53.2621  -36.1918    7.2718 S   0  0  0  0  0  0  0  0  0  0  0  0
   55.3715  -36.1788    7.2692 S   0  0  0  0  0  0  0  0  0  0  0  0
   56.0621  -38.1338    7.6572 S   0  0  0  0  0  0  0  0  0  0  0  0
   58.1715  -38.1208    7.6546 S   0  0  0  0  0  0  0  0  0  0  0  0
   58.8621  -40.0759    8.0425 S   0  0  0  0  0  0  0  0  0  0  0  0
   60.9715  -40.0629    8.0399 S   0  0  0  0  0  0  0  0  0  0  0  0
   61.6621  -42.0179    8.4278 S   0  0  0  0  0  0  0  0  0  0  0  0
   63.7714  -42.0049    8.4253 S   0  0  0  0  0  0  0  0  0  0  0  0
   64.4621  -43.9600    8.8132 S   0  0  0  0  0  0  0  0  0  0  0  0
   66.5714  -43.9470    8.8106 S   0  0  0  0  0  0  0  0  0  0  0  0
   67.2621  -45.9020    9.1985 S   0  0  0  0  0  0  0  0  0  0  0  0
   69.3714  -45.8890    9.1959 S   0  0  0  0  0  0  0  0  0  0  0  0
   70.0621  -47.8441    9.5838 S   0  0  0  0  0  0  0  0  0  0  0  0
   72.1714  -47.8311    9.5813 S   0  0  0  0  0  0  0  0  0  0  0  0
   72.8620  -49.7861    9.9692 S   0  0  0  0  0  0  0  0  0  0  0  0
   74.9714  -49.7731    9.9666 S   0  0  0  0  0  0  0  0  0  0  0  0
   75.6620  -51.7282   10.3545 S   0  0  0  0  0  0  0  0  0  0  0  0
   77.7714  -51.7152   10.3519 S   0  0  0  0  0  0  0  0  0  0  0  0
   78.4620  -53.6702   10.7399 S   0  0  0  0  0  0  0  0  0  0  0  0
   80.5714  -53.6572   10.7373 S   0  0  0  0  0  0  0  0  0  0  0  0
   81.2620  -55.6122   11.1252 S   0  0  0  0  0  0  0  0  0  0  0  0
   83.3714  -55.5992   11.1226 S   0  0  0  0  0  0  0  0  0  0  0  0
   84.0620  -57.5542   11.5105 S   0  0  0  0  0  0  0  0  0  0  0  0
   86.1714  -57.5413   11.5079 S   0  0  0  0  0  0  0  0  0  0  0  0
   86.8620  -59.4963   11.8959 S   0  0  0  0  0  0  0  0  0  0  0  0
   88.9714  -59.4833   11.8933 S   0  0  0  0  0  0  0  0  0  0  0  0
   89.6620  -61.4383   12.2812 S   0  0  0  0  0  0  0  0  0  0  0  0
   91.7713  -61.4253   12.2786 S   0  0  0  0  0  0  0  0  0  0  0  0
   92.4618  -63.3803   12.6665 S   0  0  0  0  0  0  0  0  0  0  0  0
   94.5710  -63.3671   12.6639 S   0  0  0  0  0  0  0  0  0  0  0  0
   95.2613  -65.3219   13.0518 S   0  0  0  0  0  0  0  0  0  0  0  0
   97.3700  -65.3084   13.0491 S   0  0  0  0  0  0  0  0  0  0  0  0
   98.0593  -67.2627   13.4369 S   0  0  0  0  0  0  0  0  0  0  0  0
  100.1666  -67.2482   13.4340 S   0  0  0  0  0  0  0  0  0  0  0  0
  100.8533  -69.2012   13.8215 S   0  0  0  0  0  0  0  0  0  0  0  0
  102.9572  -69.1836   13.8180 S   0  0  0  0  0  0  0  0  0  0  0  0
  103.6392  -71.1328   14.2045 S   0  0  0  0  0  0  0  0  0  0  0  0
  105.7349  -71.1069   14.2005 S   0  0  0  0  0  0  0  0  0  0  0  0
  106.4037  -73.0502   14.5851 S   0  0  0  0  0  0  0  0  0  0  0  0
  108.4855  -73.0092   14.5425 S   0  0  0  0  0  0  0  0  0  0  0  0
  109.1476  -74.9190   15.0176 S   0  0  0  0  0  0  0  0  0  0  0  0
  111.2097  -74.8717   14.9234 S   0  0  0  0  0  0  0  0  0  0  0  0
  111.7992  -73.6398   16.4744 S   0  0  0  0  0  0  0  0  0  0  0  0
    6.2611   -3.3311   -5.3040 H   0  0  0  0  0  0  0  0  0  0  0  0
   10.9772   -6.5068   -1.6727 H   0  0  0  0  0  0  0  0  0  0  0  0
  113.1376  -73.6890   16.3401 H   0  0  0  0  0  0  0  0  0  0  0  0
  1  2  1  0  0  0  0
  1 82  1  0  0  0  0
  2  3  1  0  0  0  0
  3  4  1  0  0  0  0
  4  5  1  0  0  0  0
  5  6  1  0  0  0  0
  6  7  1  0  0  0  0
  6 83  1  0  0  0  0
  7  8  1  0  0  0  0
  8  9  1  0  0  0  0
  9 10  1  0  0  0  0
 10 11  1  0  0  0  0
 11 12  1  0  0  0  0
 12 13  1  0  0  0  0
 13 14  1  0  0  0  0
 14 15  1  0  0  0  0
 15 16  1  0  0  0  0
 16 17  1  0  0  0  0
 17 18  1  0  0  0  0
 18 19  1  0  0  0  0
 19 20  1  0  0  0  0
 20 21  1  0  0  0  0
 21 22  1  0  0  0  0
 22 23  1  0  0  0  0
 23 24  1  0  0  0  0
 24 25  1  0  0  0  0
 25 26  1  0  0  0  0
 26 27  1  0  0  0  0
 27 28  1  0  0  0  0
 28 29  1  0  0  0  0
 29 30  1  0  0  0  0
 30 31  1  0  0  0  0
 31 32  1  0  0  0  0
 32 33  1  0  0  0  0
 33 34  1  0  0  0  0
 34 35  1  0  0  0  0
 35 36  1  0  0  0  0
 36 37  1  0  0  0  0
 37 38  1  0  0  0  0
 38 39  1  0  0  0  0
 39 40  1  0  0  0  0
 40 41  1  0  0  0  0
 41 42  1  0  0  0  0
 42 43  1  0  0  0  0
 43 44  1  0  0  0  0
 44 45  1  0  0  0  0
 45 46  1  0  0  0  0
 46 47  1  0  0  0  0
 47 48  1  0  0  0  0
 48 49  1  0  0  0  0
 49 50  1  0  0  0  0
 50 51  1  0  0  0  0
 51 52  1  0  0  0  0
 52 53  1  0  0  0  0
 53 54  1  0  0  0  0
 54 55  1  0  0  0  0
 55 56  1  0  0  0  0
 56 57  1  0  0  0  0
 57 58  1  0  0  0  0
 58 59  1  0  0  0  0
 59 60  1  0  0  0  0
 60 61  1  0  0  0  0
 61 62  1  0  0  0  0
 62 63  1  0  0  0  0
 63 64  1  0  0  0  0
 64 65  1  0  0  0  0
 65 66  1  0  0  0  0
 66 67  1  0  0  0  0
 67 68  1  0  0  0  0
 68 69  1  0  0  0  0
 69 70  1  0  0  0  0
 70 71  1  0  0  0  0
 71 72  1  0  0  0  0
 72 73  1  0  0  0  0
 73 74  1  0  0  0  0
 74 75  1  0  0  0  0
 75 76  1  0  0  0  0
 76 77  1  0  0  0  0
 77 78  1  0  0  0  0
 78 79  1  0  0  0  0
 79 80  1  0  0  0  0
 80 81  1  0  0  0  0
 81 84  1  0  0  0  0
M  END
$$$$
