
 OpenBabel04232216423D

 18 18  0  0  0  0  0  0  0  0999 V2000
   -0.3554    1.3596    0.0584 C   0  0  0  0  0  0  0  0  0  0  0  0
    1.0752    1.0202   -0.0822 C   0  0  0  0  0  0  0  0  0  0  0  0
    1.3648   -0.2844   -0.0848 C   0  0  0  0  0  0  0  0  0  0  0  0
    0.2902   -1.3447   -0.0257 C   0  0  0  0  0  0  0  0  0  0  0  0
    0.3788   -2.0933    1.3116 C   0  0  0  0  0  0  0  0  0  0  0  0
    0.4860   -2.3254   -1.1904 C   0  0  0  0  0  0  0  0  0  0  0  0
   -1.0515   -0.7665   -0.1873 N   0  0  0  0  0  0  0  0  0  0  0  0
   -1.3516    0.5304    0.0637 N   0  0  0  0  0  0  0  0  0  0  0  0
   -0.5657    2.4321    0.1975 H   0  0  0  0  0  0  0  0  0  0  0  0
    1.8115    1.8103   -0.1158 H   0  0  0  0  0  0  0  0  0  0  0  0
    2.4020   -0.6067   -0.1251 H   0  0  0  0  0  0  0  0  0  0  0  0
    1.3690   -2.5439    1.4487 H   0  0  0  0  0  0  0  0  0  0  0  0
   -0.3577   -2.9032    1.3675 H   0  0  0  0  0  0  0  0  0  0  0  0
    0.2007   -1.4233    2.1620 H   0  0  0  0  0  0  0  0  0  0  0  0
    1.4898   -2.7704   -1.1755 H   0  0  0  0  0  0  0  0  0  0  0  0
    0.3657   -1.8248   -2.1587 H   0  0  0  0  0  0  0  0  0  0  0  0
   -0.2385   -3.1468   -1.1503 H   0  0  0  0  0  0  0  0  0  0  0  0
   -1.7896   -1.3962    0.1266 H   0  0  0  0  0  0  0  0  0  0  0  0
  1  2  1  0  0  0  0
  1  8  2  0  0  0  0
  1  9  1  0  0  0  0
  2  3  2  0  0  0  0
  2 10  1  0  0  0  0
  3  4  1  0  0  0  0
  3 11  1  0  0  0  0
  4  5  1  0  0  0  0
  4  6  1  0  0  0  0
  4  7  1  0  0  0  0
  5 12  1  0  0  0  0
  5 13  1  0  0  0  0
  5 14  1  0  0  0  0
  6 15  1  0  0  0  0
  6 16  1  0  0  0  0
  6 17  1  0  0  0  0
  7  8  1  0  0  0  0
  7 18  1  0  0  0  0
M  END
$$$$
