
 OpenBabel04232216523D

 65 66  0  0  1  0  0  0  0  0999 V2000
    4.5418    3.0564    1.2859 C   0  0  0  0  0  0  0  0  0  0  0  0
    4.2201    2.8743   -0.2306 C   0  0  0  0  0  0  0  0  0  0  0  0
    5.3454    2.8997   -1.4799 C   0  0  0  0  0  0  0  0  0  0  0  0
    5.9781    4.1143   -2.7697 C   0  0  0  0  0  0  0  0  0  0  0  0
    7.6256    4.0757   -3.7932 C   0  0  3  0  0  0  0  0  0  0  0  0
    7.9304    2.7624   -3.1851 C   0  0  0  0  0  0  0  0  0  0  0  0
    7.9009    1.5853   -4.1350 C   0  0  0  0  0  0  0  0  0  0  0  0
    9.2116    0.9518   -3.8493 C   0  0  0  0  0  0  0  0  0  0  0  0
   10.0464    1.6165   -4.8867 C   0  0  0  0  0  0  0  0  0  0  0  0
   11.3089    1.9102   -4.1898 C   0  0  0  0  0  0  0  0  0  0  0  0
   11.9554    2.6462   -5.2725 C   0  0  0  0  0  0  0  0  0  0  0  0
   13.2431    2.0322   -5.4962 N   0  0  0  0  0  0  0  0  0  0  0  0
   13.6651    2.7718   -6.5556 C   0  0  0  0  0  0  0  0  0  0  0  0
   13.5607    2.3176   -7.7266 O   0  0  0  0  0  0  0  0  0  0  0  0
   13.6870    4.0713   -6.0740 N   0  0  0  0  0  0  0  0  0  0  0  0
   13.1558    5.0699   -6.8397 C   0  0  0  0  0  0  0  0  0  0  0  0
   11.8026    5.5187   -6.8774 C   0  0  0  0  0  0  0  0  0  0  0  0
   11.7936    6.5516   -8.0596 N   0  0  0  0  0  0  0  0  0  0  0  0
   12.8131    7.0875   -9.2404 C   0  0  0  0  0  0  0  0  0  0  0  0
   13.9596    6.4999  -10.2134 C   0  0  0  0  0  0  0  0  0  0  0  0
   13.9726    5.1101  -10.8310 C   0  0  0  0  0  0  0  0  0  0  0  0
   14.1487    4.0570   -9.7694 C   0  0  0  0  0  0  0  0  0  0  0  0
   15.1200    4.4779   -8.6547 C   0  0  0  0  0  0  0  0  0  0  0  0
   14.5152    5.4888   -7.6084 C   0  0  0  0  0  0  0  0  0  0  0  0
   10.2419    5.4282   -5.8161 C   0  0  0  0  0  0  0  0  0  0  0  0
    8.9864    5.0496   -4.8903 C   0  0  0  0  0  0  0  0  0  0  0  0
    3.6554    2.7915    1.9038 H   0  0  0  0  0  0  0  0  0  0  0  0
    4.7787    4.0865    1.5521 H   0  0  0  0  0  0  0  0  0  0  0  0
    5.3242    2.3830    1.6594 H   0  0  0  0  0  0  0  0  0  0  0  0
    3.2965    3.4138   -0.4664 H   0  0  0  0  0  0  0  0  0  0  0  0
    3.8742    1.8133   -0.2017 H   0  0  0  0  0  0  0  0  0  0  0  0
    4.7530    2.2428   -2.1513 H   0  0  0  0  0  0  0  0  0  0  0  0
    6.1354    2.2428   -1.0919 H   0  0  0  0  0  0  0  0  0  0  0  0
    5.4884    5.0770   -2.6751 H   0  0  0  0  0  0  0  0  0  0  0  0
    5.3786    3.6211   -3.5614 H   0  0  0  0  0  0  0  0  0  0  0  0
    7.0358    3.9370   -4.7403 H   0  0  0  0  0  0  0  0  0  0  0  0
    7.1551    2.3668   -2.5752 H   0  0  0  0  0  0  0  0  0  0  0  0
    8.6981    2.8629   -2.3956 H   0  0  0  0  0  0  0  0  0  0  0  0
    7.7472    1.9421   -5.1637 H   0  0  0  0  0  0  0  0  0  0  0  0
    7.0928    0.8693   -3.9588 H   0  0  0  0  0  0  0  0  0  0  0  0
    9.2470   -0.1190   -3.9082 H   0  0  0  0  0  0  0  0  0  0  0  0
    9.5846    1.2111   -2.8407 H   0  0  0  0  0  0  0  0  0  0  0  0
    9.6266    2.5643   -5.2428 H   0  0  0  0  0  0  0  0  0  0  0  0
   10.1210    0.9825   -5.7763 H   0  0  0  0  0  0  0  0  0  0  0  0
   11.8449    1.0274   -3.8758 H   0  0  0  0  0  0  0  0  0  0  0  0
   11.1977    2.6031   -3.3476 H   0  0  0  0  0  0  0  0  0  0  0  0
   12.0054    3.6691   -4.8968 H   0  0  0  0  0  0  0  0  0  0  0  0
   11.4200    2.7002   -6.2312 H   0  0  0  0  0  0  0  0  0  0  0  0
   13.8245    2.2497   -4.7089 H   0  0  0  0  0  0  0  0  0  0  0  0
   14.6095    4.2278   -5.6901 H   0  0  0  0  0  0  0  0  0  0  0  0
   11.5893    7.4309   -7.5632 H   0  0  0  0  0  0  0  0  0  0  0  0
   13.3339    7.9438   -8.7789 H   0  0  0  0  0  0  0  0  0  0  0  0
   12.1345    7.5535   -9.9629 H   0  0  0  0  0  0  0  0  0  0  0  0
   14.9742    6.6745   -9.8067 H   0  0  0  0  0  0  0  0  0  0  0  0
   14.0378    7.1837  -11.0792 H   0  0  0  0  0  0  0  0  0  0  0  0
   14.8139    5.0153  -11.5421 H   0  0  0  0  0  0  0  0  0  0  0  0
   13.0746    4.9313  -11.4291 H   0  0  0  0  0  0  0  0  0  0  0  0
   14.5048    3.1213  -10.2387 H   0  0  0  0  0  0  0  0  0  0  0  0
   13.1579    3.8554   -9.3765 H   0  0  0  0  0  0  0  0  0  0  0  0
   16.0541    4.8645   -9.0855 H   0  0  0  0  0  0  0  0  0  0  0  0
   15.4732    3.5800   -8.1329 H   0  0  0  0  0  0  0  0  0  0  0  0
   14.5542    6.5393   -7.8962 H   0  0  0  0  0  0  0  0  0  0  0  0
   15.3214    5.5583   -6.8545 H   0  0  0  0  0  0  0  0  0  0  0  0
   10.0662    6.4955   -6.0029 H   0  0  0  0  0  0  0  0  0  0  0  0
    8.4244    6.0347   -4.7658 H   0  0  0  0  0  0  0  0  0  0  0  0
  1  2  1  0  0  0  0
  1 27  1  0  0  0  0
  1 28  1  0  0  0  0
  1 29  1  0  0  0  0
  2  3  1  0  0  0  0
  2 30  1  0  0  0  0
  2 31  1  0  0  0  0
  3  4  1  0  0  0  0
  3 32  1  0  0  0  0
  3 33  1  0  0  0  0
  4  5  1  0  0  0  0
  4 34  1  0  0  0  0
  4 35  1  0  0  0  0
  5  6  1  0  0  0  0
  5 26  1  0  0  0  0
  5 36  1  0  0  0  0
  6  7  1  0  0  0  0
  6 37  1  0  0  0  0
  6 38  1  0  0  0  0
  7  8  1  0  0  0  0
  7 39  1  0  0  0  0
  7 40  1  0  0  0  0
  8  9  1  0  0  0  0
  8 41  1  0  0  0  0
  8 42  1  0  0  0  0
  9 10  1  0  0  0  0
  9 43  1  0  0  0  0
  9 44  1  0  0  0  0
 10 11  1  0  0  0  0
 10 45  1  0  0  0  0
 10 46  1  0  0  0  0
 11 12  1  0  0  0  0
 11 47  1  0  0  0  0
 11 48  1  0  0  0  0
 12 13  1  0  0  0  0
 12 49  1  0  0  0  0
 13 14  2  0  0  0  0
 13 15  1  0  0  0  0
 15 16  1  0  0  0  0
 15 50  1  0  0  0  0
 16 17  2  3  0  0  0
 16 24  1  0  0  0  0
 17 18  1  0  0  0  0
 17 25  1  0  0  0  0
 18 19  1  0  0  0  0
 18 51  1  0  0  0  0
 19 20  1  0  0  0  0
 19 52  1  0  0  0  0
 19 53  1  0  0  0  0
 20 21  1  0  0  0  0
 20 54  1  0  0  0  0
 20 55  1  0  0  0  0
 21 22  1  0  0  0  0
 21 56  1  0  0  0  0
 21 57  1  0  0  0  0
 22 23  1  0  0  0  0
 22 58  1  0  0  0  0
 22 59  1  0  0  0  0
 23 24  1  0  0  0  0
 23 60  1  0  0  0  0
 23 61  1  0  0  0  0
 24 62  1  0  0  0  0
 24 63  1  0  0  0  0
 25 26  2  3  0  0  0
 25 64  1  0  0  0  0
 26 65  1  0  0  0  0
M  END
$$$$
