
 OpenBabel04232216523D

 56 57  0  0  1  0  0  0  0  0999 V2000
   19.1837  -10.2609   -9.9027 C   0  0  0  0  0  0  0  0  0  0  0  0
   19.5999   -9.6220   -8.5884 C   0  0  0  0  0  0  0  0  0  0  0  0
   19.6125   -8.1006   -8.6919 C   0  0  0  0  0  0  0  0  0  0  0  0
   20.0368   -7.4737   -7.3672 C   0  0  0  0  0  0  0  0  0  0  0  0
   20.0622   -5.9559   -7.4734 C   0  0  0  0  0  0  0  0  0  0  0  0
   20.5093   -5.3190   -6.1596 C   0  0  0  0  0  0  0  0  0  0  0  0
   20.5050   -3.8057   -6.3098 C   0  0  0  0  0  0  0  0  0  0  0  0
   20.9055   -3.0875   -5.0243 C   0  0  0  0  0  0  0  0  0  0  0  0
   20.8760   -1.5647   -5.1916 C   0  0  0  0  0  0  0  0  0  0  0  0
   19.4742   -1.0665   -5.5390 C   0  0  0  0  0  0  0  0  0  0  0  0
   19.4141    0.4469   -5.7180 C   0  0  0  0  0  0  0  0  0  0  0  0
   18.0083    0.9561   -6.1432 C   0  0  3  0  0  0  0  0  0  0  0  0
   16.9060    0.4550   -5.0274 C   0  0  0  0  0  0  0  0  0  0  0  0
   15.3698    1.1776   -4.8321 C   0  0  0  0  0  0  0  0  0  0  0  0
   15.0812    1.6745   -3.7378 O   0  0  0  0  0  0  0  0  0  0  0  0
   14.2557    1.0809   -5.9099 C   0  0  0  0  0  0  0  0  0  0  0  0
   15.3482    1.1097   -6.6217 C   0  0  0  0  0  0  0  0  0  0  0  0
   15.9115    2.4842   -6.9946 C   0  0  0  0  0  0  0  0  0  0  0  0
   15.9720    2.3372   -8.3061 C   0  0  0  0  0  0  0  0  0  0  0  0
   14.4493    2.1611   -8.6178 C   0  0  0  0  0  0  0  0  0  0  0  0
   13.5771    1.5347   -7.2686 C   0  0  0  0  0  0  0  0  0  0  0  0
   12.3717    1.2989   -7.4101 O   0  0  0  0  0  0  0  0  0  0  0  0
   17.0176    1.3081   -8.6532 C   0  0  0  0  0  0  0  0  0  0  0  0
   17.8299    0.6826   -7.7257 C   0  0  0  0  0  0  0  0  0  0  0  0
   19.1863  -11.3498   -9.8090 H   0  0  0  0  0  0  0  0  0  0  0  0
   19.8740   -9.9842  -10.7060 H   0  0  0  0  0  0  0  0  0  0  0  0
   18.1766   -9.9430  -10.1890 H   0  0  0  0  0  0  0  0  0  0  0  0
   20.5967   -9.9828   -8.3098 H   0  0  0  0  0  0  0  0  0  0  0  0
   18.9080   -9.9348   -7.7980 H   0  0  0  0  0  0  0  0  0  0  0  0
   18.6153   -7.7379   -8.9706 H   0  0  0  0  0  0  0  0  0  0  0  0
   20.3023   -7.7880   -9.4857 H   0  0  0  0  0  0  0  0  0  0  0  0
   21.0316   -7.8383   -7.0848 H   0  0  0  0  0  0  0  0  0  0  0  0
   19.3415   -7.7750   -6.5742 H   0  0  0  0  0  0  0  0  0  0  0  0
   19.0624   -5.5903   -7.7413 H   0  0  0  0  0  0  0  0  0  0  0  0
   20.7408   -5.6500   -8.2796 H   0  0  0  0  0  0  0  0  0  0  0  0
   21.5116   -5.6688   -5.8884 H   0  0  0  0  0  0  0  0  0  0  0  0
   19.8262   -5.6137   -5.3535 H   0  0  0  0  0  0  0  0  0  0  0  0
   19.4940   -3.5151   -6.6112 H   0  0  0  0  0  0  0  0  0  0  0  0
   21.1819   -3.5070   -7.1197 H   0  0  0  0  0  0  0  0  0  0  0  0
   21.9150   -3.3943   -4.7279 H   0  0  0  0  0  0  0  0  0  0  0  0
   20.2308   -3.3790   -4.2079 H   0  0  0  0  0  0  0  0  0  0  0  0
   21.5863   -1.2665   -5.9719 H   0  0  0  0  0  0  0  0  0  0  0  0
   21.2095   -1.0977   -4.2572 H   0  0  0  0  0  0  0  0  0  0  0  0
   18.7935   -1.3848   -4.7425 H   0  0  0  0  0  0  0  0  0  0  0  0
   19.1251   -1.5293   -6.4647 H   0  0  0  0  0  0  0  0  0  0  0  0
   20.1582    0.7583   -6.4650 H   0  0  0  0  0  0  0  0  0  0  0  0
   19.7032    0.9322   -4.7760 H   0  0  0  0  0  0  0  0  0  0  0  0
   18.0903    2.0435   -6.0325 H   0  0  0  0  0  0  0  0  0  0  0  0
   17.3742    0.5855   -4.0414 H   0  0  0  0  0  0  0  0  0  0  0  0
   16.7184   -0.6205   -5.1495 H   0  0  0  0  0  0  0  0  0  0  0  0
   15.4247    0.2612   -7.3346 H   0  0  0  0  0  0  0  0  0  0  0  0
   15.3901    3.3233   -6.5203 H   0  0  0  0  0  0  0  0  0  0  0  0
   14.2946    1.4893   -9.4663 H   0  0  0  0  0  0  0  0  0  0  0  0
   14.0162    3.1470   -8.8290 H   0  0  0  0  0  0  0  0  0  0  0  0
   17.0163    0.9603   -9.6825 H   0  0  0  0  0  0  0  0  0  0  0  0
   18.4515   -0.1206   -8.1149 H   0  0  0  0  0  0  0  0  0  0  0  0
  1  2  1  0  0  0  0
  1 25  1  0  0  0  0
  1 26  1  0  0  0  0
  1 27  1  0  0  0  0
  2  3  1  0  0  0  0
  2 28  1  0  0  0  0
  2 29  1  0  0  0  0
  3  4  1  0  0  0  0
  3 30  1  0  0  0  0
  3 31  1  0  0  0  0
  4  5  1  0  0  0  0
  4 32  1  0  0  0  0
  4 33  1  0  0  0  0
  5  6  1  0  0  0  0
  5 34  1  0  0  0  0
  5 35  1  0  0  0  0
  6  7  1  0  0  0  0
  6 36  1  0  0  0  0
  6 37  1  0  0  0  0
  7  8  1  0  0  0  0
  7 38  1  0  0  0  0
  7 39  1  0  0  0  0
  8  9  1  0  0  0  0
  8 40  1  0  0  0  0
  8 41  1  0  0  0  0
  9 10  1  0  0  0  0
  9 42  1  0  0  0  0
  9 43  1  0  0  0  0
 10 11  1  0  0  0  0
 10 44  1  0  0  0  0
 10 45  1  0  0  0  0
 11 12  1  0  0  0  0
 11 46  1  0  0  0  0
 11 47  1  0  0  0  0
 12 13  1  0  0  0  0
 12 24  1  0  0  0  0
 12 48  1  0  0  0  0
 13 14  1  0  0  0  0
 13 49  1  0  0  0  0
 13 50  1  0  0  0  0
 14 15  2  0  0  0  0
 14 16  1  0  0  0  0
 16 17  2  0  0  0  0
 16 21  1  0  0  0  0
 17 18  1  0  0  0  0
 17 51  1  0  0  0  0
 18 19  2  0  0  0  0
 18 52  1  0  0  0  0
 19 20  1  0  0  0  0
 19 23  1  0  0  0  0
 20 21  1  0  0  0  0
 20 53  1  0  0  0  0
 20 54  1  0  0  0  0
 21 22  2  0  0  0  0
 23 24  2  3  0  0  0
 23 55  1  0  0  0  0
 24 56  1  0  0  0  0
M  END
$$$$
