
 OpenBabel04232216473D

 51 52  0  0  0  0  0  0  0  0999 V2000
    2.5943    0.6782   -1.0851 C   0  0  0  0  0  0  0  0  0  0  0  0
    1.0956    0.6690   -1.0734 C   0  0  0  0  0  0  0  0  0  0  0  0
    0.3617   -0.3683   -1.6572 C   0  0  0  0  0  0  0  0  0  0  0  0
   -1.0392   -0.3404   -1.6449 C   0  0  0  0  0  0  0  0  0  0  0  0
   -1.7288    0.7196   -1.0406 C   0  0  0  0  0  0  0  0  0  0  0  0
   -3.1982    0.7571   -1.0873 C   0  0  0  0  0  0  0  0  0  0  0  0
   -3.9709    1.3504   -0.1608 C   0  0  0  0  0  0  0  0  0  0  0  0
   -5.4687    1.3557   -0.2201 C   0  0  0  0  0  0  0  0  0  0  0  0
   -6.1038    2.7624   -0.2317 C   0  0  0  0  0  0  0  0  0  0  0  0
   -7.6115    2.5894   -0.2846 C   0  0  0  0  0  0  0  0  0  0  0  0
   -8.0948    1.4541   -0.3190 O   0  0  0  0  0  0  0  0  0  0  0  0
   -8.4509    3.7037   -0.2439 N   0  0  0  0  0  0  0  0  0  0  0  0
   -9.8774    3.3746   -0.1949 C   0  0  0  0  0  0  0  0  0  0  0  0
  -10.2648    2.7069    1.1369 C   0  0  0  0  0  0  0  0  0  0  0  0
  -11.2377    3.5441    1.9493 C   0  0  0  0  0  0  0  0  0  0  0  0
  -10.5610    4.7939    2.4420 C   0  0  0  0  0  0  0  0  0  0  0  0
   -9.9749    4.8782    3.5094 O   0  0  0  0  0  0  0  0  0  0  0  0
  -10.6474    5.7721    1.4971 O   0  0  0  0  0  0  0  0  0  0  0  0
   -9.9201    6.9699    1.7625 C   0  0  0  0  0  0  0  0  0  0  0  0
   -8.8565    7.1854    0.6875 C   0  0  0  0  0  0  0  0  0  0  0  0
   -7.8265    6.0430    0.5542 C   0  0  0  0  0  0  0  0  0  0  0  0
   -8.0755    5.0754   -0.6178 C   0  0  0  0  0  0  0  0  0  0  0  0
   -0.9861    1.7568   -0.4657 C   0  0  0  0  0  0  0  0  0  0  0  0
    0.4080    1.7313   -0.4782 C   0  0  0  0  0  0  0  0  0  0  0  0
    3.0024   -0.2176   -1.5613 H   0  0  0  0  0  0  0  0  0  0  0  0
    2.9770    0.7218   -0.0601 H   0  0  0  0  0  0  0  0  0  0  0  0
    2.9563    1.5517   -1.6382 H   0  0  0  0  0  0  0  0  0  0  0  0
    0.8704   -1.2048   -2.1308 H   0  0  0  0  0  0  0  0  0  0  0  0
   -1.5833   -1.1600   -2.1092 H   0  0  0  0  0  0  0  0  0  0  0  0
   -3.6571    0.2534   -1.9365 H   0  0  0  0  0  0  0  0  0  0  0  0
   -3.5298    1.8044    0.7224 H   0  0  0  0  0  0  0  0  0  0  0  0
   -5.8363    0.7961    0.6513 H   0  0  0  0  0  0  0  0  0  0  0  0
   -5.8075    0.7982   -1.1039 H   0  0  0  0  0  0  0  0  0  0  0  0
   -5.7566    3.3217   -1.1050 H   0  0  0  0  0  0  0  0  0  0  0  0
   -5.8397    3.3077    0.6798 H   0  0  0  0  0  0  0  0  0  0  0  0
  -10.0784    2.6757   -1.0176 H   0  0  0  0  0  0  0  0  0  0  0  0
  -10.4801    4.2602   -0.4101 H   0  0  0  0  0  0  0  0  0  0  0  0
   -9.3790    2.4963    1.7515 H   0  0  0  0  0  0  0  0  0  0  0  0
  -10.7327    1.7381    0.9228 H   0  0  0  0  0  0  0  0  0  0  0  0
  -11.5794    2.9796    2.8246 H   0  0  0  0  0  0  0  0  0  0  0  0
  -12.1307    3.7999    1.3710 H   0  0  0  0  0  0  0  0  0  0  0  0
   -9.4603    6.9882    2.7571 H   0  0  0  0  0  0  0  0  0  0  0  0
  -10.6411    7.7941    1.7309 H   0  0  0  0  0  0  0  0  0  0  0  0
   -8.3237    8.1096    0.9486 H   0  0  0  0  0  0  0  0  0  0  0  0
   -9.3428    7.3747   -0.2766 H   0  0  0  0  0  0  0  0  0  0  0  0
   -7.6898    5.5160    1.5040 H   0  0  0  0  0  0  0  0  0  0  0  0
   -6.8686    6.5377    0.3402 H   0  0  0  0  0  0  0  0  0  0  0  0
   -7.1634    5.0210   -1.2210 H   0  0  0  0  0  0  0  0  0  0  0  0
   -8.8481    5.4631   -1.2925 H   0  0  0  0  0  0  0  0  0  0  0  0
   -1.4854    2.6089   -0.0119 H   0  0  0  0  0  0  0  0  0  0  0  0
    0.9570    2.5520   -0.0221 H   0  0  0  0  0  0  0  0  0  0  0  0
  1  2  1  0  0  0  0
  1 25  1  0  0  0  0
  1 26  1  0  0  0  0
  1 27  1  0  0  0  0
  2  3  1  0  0  0  0
  2 24  2  0  0  0  0
  3  4  2  0  0  0  0
  3 28  1  0  0  0  0
  4  5  1  0  0  0  0
  4 29  1  0  0  0  0
  5  6  1  0  0  0  0
  5 23  2  0  0  0  0
  6  7  2  3  0  0  0
  6 30  1  0  0  0  0
  7  8  1  0  0  0  0
  7 31  1  0  0  0  0
  8  9  1  0  0  0  0
  8 32  1  0  0  0  0
  8 33  1  0  0  0  0
  9 10  1  0  0  0  0
  9 34  1  0  0  0  0
  9 35  1  0  0  0  0
 10 11  2  0  0  0  0
 10 12  1  0  0  0  0
 12 13  1  0  0  0  0
 12 22  1  0  0  0  0
 13 14  1  0  0  0  0
 13 36  1  0  0  0  0
 13 37  1  0  0  0  0
 14 15  1  0  0  0  0
 14 38  1  0  0  0  0
 14 39  1  0  0  0  0
 15 16  1  0  0  0  0
 15 40  1  0  0  0  0
 15 41  1  0  0  0  0
 16 17  2  0  0  0  0
 16 18  1  0  0  0  0
 18 19  1  0  0  0  0
 19 20  1  0  0  0  0
 19 42  1  0  0  0  0
 19 43  1  0  0  0  0
 20 21  1  0  0  0  0
 20 44  1  0  0  0  0
 20 45  1  0  0  0  0
 21 22  1  0  0  0  0
 21 46  1  0  0  0  0
 21 47  1  0  0  0  0
 22 48  1  0  0  0  0
 22 49  1  0  0  0  0
 23 24  1  0  0  0  0
 23 50  1  0  0  0  0
 24 51  1  0  0  0  0
M  END
$$$$
