
 OpenBabel04232216463D

 52 53  0  0  1  0  0  0  0  0999 V2000
    5.5078    0.9395    1.6366 C   0  0  0  0  0  0  0  0  0  0  0  0
    6.7729    2.0470    1.5812 C   0  0  0  0  0  0  0  0  0  0  0  0
    6.1901    2.9507    0.6027 C   0  0  0  0  0  0  0  0  0  0  0  0
    6.9475    2.8800   -0.4550 C   0  0  0  0  0  0  0  0  0  0  0  0
    8.3393    2.0693   -0.6123 C   0  0  3  0  0  0  0  0  0  0  0  0
    7.5568    0.6587   -1.1903 C   0  0  0  0  0  0  0  0  0  0  0  0
    6.7838    0.7118   -2.5324 C   0  0  0  0  0  0  0  0  0  0  0  0
    7.7865    1.1054   -3.5550 C   0  0  0  0  0  0  0  0  0  0  0  0
    7.7968    2.3041   -4.1337 C   0  0  0  0  0  0  0  0  0  0  0  0
    8.8652    2.8012   -4.8142 O   0  0  0  0  0  0  0  0  0  0  0  0
    6.3528    3.3832   -1.5744 N   0  0  0  0  0  0  0  0  0  0  0  0
    7.0670    4.4096   -1.8909 C   0  0  0  0  0  0  0  0  0  0  0  0
    7.2115    5.4780   -1.0462 N   0  0  0  0  0  0  0  0  0  0  0  0
    8.1693    5.1871   -0.3234 N   0  0  0  0  0  0  0  0  0  0  0  0
    8.9047    6.2828   -0.1557 N   0  0  0  0  0  0  0  0  0  0  0  0
   10.0156    6.1608   -0.7869 C   0  0  0  0  0  0  0  0  0  0  0  0
   10.7967    7.3588   -0.6962 C   0  0  0  0  0  0  0  0  0  0  0  0
   11.7881    7.7272   -1.5077 C   0  0  0  0  0  0  0  0  0  0  0  0
   12.5938    8.7103   -0.8215 C   0  0  0  0  0  0  0  0  0  0  0  0
   13.5417    8.2033   -0.0263 C   0  0  0  0  0  0  0  0  0  0  0  0
   14.4451    7.1053   -0.4155 C   0  0  0  0  0  0  0  0  0  0  0  0
   14.1323    5.7914   -0.5964 C   0  0  0  0  0  0  0  0  0  0  0  0
   12.5839    5.0259   -0.3151 C   0  0  0  0  0  0  0  0  0  0  0  0
   12.0313    4.1887    0.7380 C   0  0  0  0  0  0  0  0  0  0  0  0
   13.1018    4.6941    1.9651 C   0  0  0  0  0  0  0  0  0  0  0  0
   10.5284    3.4689    1.1220 N   0  0  0  0  0  0  0  0  0  0  0  0
    9.2024    2.7905    0.8224 C   0  0  0  0  0  0  0  0  0  0  0  0
    8.1317    2.1483    1.9114 N   0  0  0  0  0  0  0  0  0  0  0  0
    4.5297    1.4800    1.5458 H   0  0  0  0  0  0  0  0  0  0  0  0
    5.3507    0.2156    2.4313 H   0  0  0  0  0  0  0  0  0  0  0  0
    5.3935    0.3776    0.6803 H   0  0  0  0  0  0  0  0  0  0  0  0
    5.2271    3.4213    0.7048 H   0  0  0  0  0  0  0  0  0  0  0  0
    8.5689    1.2242    0.0898 H   0  0  0  0  0  0  0  0  0  0  0  0
    6.8195    0.2846   -0.4761 H   0  0  0  0  0  0  0  0  0  0  0  0
    8.2705   -0.1788   -1.2488 H   0  0  0  0  0  0  0  0  0  0  0  0
    5.8986    1.3591   -2.5081 H   0  0  0  0  0  0  0  0  0  0  0  0
    6.3531   -0.2674   -2.7855 H   0  0  0  0  0  0  0  0  0  0  0  0
    8.5983    0.4036   -3.6899 H   0  0  0  0  0  0  0  0  0  0  0  0
    7.0111    3.0413   -4.0266 H   0  0  0  0  0  0  0  0  0  0  0  0
    9.5423    2.1030   -4.8455 H   0  0  0  0  0  0  0  0  0  0  0  0
    7.9166    4.2494   -2.5533 H   0  0  0  0  0  0  0  0  0  0  0  0
   10.4100    5.2639   -1.3191 H   0  0  0  0  0  0  0  0  0  0  0  0
   10.6246    7.8516    0.2647 H   0  0  0  0  0  0  0  0  0  0  0  0
   12.1735    7.1217   -2.3185 H   0  0  0  0  0  0  0  0  0  0  0  0
   12.0130    9.5603   -0.4597 H   0  0  0  0  0  0  0  0  0  0  0  0
   13.5180    8.5044    1.0251 H   0  0  0  0  0  0  0  0  0  0  0  0
   15.4369    7.5864   -0.6634 H   0  0  0  0  0  0  0  0  0  0  0  0
   14.9927    5.2304   -1.0014 H   0  0  0  0  0  0  0  0  0  0  0  0
   12.3531    5.9676    0.0835 H   0  0  0  0  0  0  0  0  0  0  0  0
   13.9613    4.0181    2.1188 H   0  0  0  0  0  0  0  0  0  0  0  0
   12.6698    5.1089    2.8738 H   0  0  0  0  0  0  0  0  0  0  0  0
   13.6965    5.6032    1.6728 H   0  0  0  0  0  0  0  0  0  0  0  0
  1  2  1  0  0  0  0
  1 29  1  0  0  0  0
  1 30  1  0  0  0  0
  1 31  1  0  0  0  0
  2  3  1  0  0  0  0
  2 28  2  0  0  0  0
  3  4  2  0  0  0  0
  3 32  1  0  0  0  0
  4  5  1  0  0  0  0
  4 11  1  0  0  0  0
  5  6  1  0  0  0  0
  5 27  1  0  0  0  0
  5 33  1  0  0  0  0
  6  7  1  0  0  0  0
  6 34  1  0  0  0  0
  6 35  1  0  0  0  0
  7  8  1  0  0  0  0
  7 36  1  0  0  0  0
  7 37  1  0  0  0  0
  8  9  2  3  0  0  0
  8 38  1  0  0  0  0
  9 10  1  0  0  0  0
  9 39  1  0  0  0  0
 10 40  1  0  0  0  0
 11 12  2  3  0  0  0
 12 13  1  0  0  0  0
 12 41  1  0  0  0  0
 13 14  2  3  0  0  0
 14 15  1  0  0  0  0
 15 16  2  3  0  0  0
 16 17  1  0  0  0  0
 16 42  1  0  0  0  0
 17 18  2  3  0  0  0
 17 43  1  0  0  0  0
 18 19  1  0  0  0  0
 18 44  1  0  0  0  0
 19 20  2  3  0  0  0
 19 45  1  0  0  0  0
 20 21  1  0  0  0  0
 20 46  1  0  0  0  0
 21 22  2  3  0  0  0
 21 47  1  0  0  0  0
 22 23  1  0  0  0  0
 22 48  1  0  0  0  0
 23 24  2  3  0  0  0
 23 49  1  0  0  0  0
 24 25  1  0  0  0  0
 24 26  1  0  0  0  0
 25 50  1  0  0  0  0
 25 51  1  0  0  0  0
 25 52  1  0  0  0  0
 26 27  2  3  0  0  0
 27 28  1  0  0  0  0
M  END
$$$$
