
 OpenBabel04232216543D

236235  0  0  0  0  0  0  0  0999 V2000
   22.8617  -10.2610   -6.6126 C   0  0  0  0  0  0  0  0  0  0  0  0
   22.2926   -9.1589   -5.7325 C   0  0  0  0  0  0  0  0  0  0  0  0
   22.7070   -7.7847   -6.2640 C   0  0  0  0  0  0  0  0  0  0  0  0
   22.1333   -6.6775   -5.3774 C   0  0  0  0  0  0  0  0  0  0  0  0
   22.5498   -5.3805   -5.9103 N   0  0  0  0  0  0  0  0  0  0  0  0
   22.0153   -4.3527   -5.0913 N   0  0  0  0  0  0  0  0  0  0  0  0
   22.4176   -3.0927   -5.5998 N   0  0  0  0  0  0  0  0  0  0  0  0
   21.8552   -2.0586   -4.7456 C   0  0  0  0  0  0  0  0  0  0  0  0
   22.2727   -0.6950   -5.2798 C   0  0  0  0  0  0  0  0  0  0  0  0
   21.7015    0.4144   -4.4079 C   0  0  0  0  0  0  0  0  0  0  0  0
   22.1211    1.7761   -4.9393 C   0  0  0  0  0  0  0  0  0  0  0  0
   21.5497    2.8820   -4.0665 C   0  0  0  0  0  0  0  0  0  0  0  0
   21.9692    4.2427   -4.6005 C   0  0  0  0  0  0  0  0  0  0  0  0
   21.3982    5.3486   -3.7249 C   0  0  0  0  0  0  0  0  0  0  0  0
   21.8136    6.7149   -4.2523 C   0  0  0  0  0  0  0  0  0  0  0  0
   21.2431    7.8203   -3.3719 C   0  0  0  0  0  0  0  0  0  0  0  0
   21.6563    9.1880   -3.8943 C   0  0  0  0  0  0  0  0  0  0  0  0
   21.0899   10.3102   -3.0509 C   0  0  0  0  0  0  0  0  0  0  0  0
   21.6327   11.9212   -3.6982 S   0  0  0  0  0  0  0  0  0  0  0  0
   20.9816   11.8966   -5.4055 C   0  0  0  0  0  0  0  0  0  0  0  0
   21.4510   13.4575   -6.2484 S   0  0  0  0  0  0  0  0  0  0  0  0
   23.3172   13.4137   -6.1975 C   0  0  0  0  0  0  0  0  0  0  0  0
   23.8502   15.0081   -6.9545 S   0  0  0  0  0  0  0  0  0  0  0  0
   25.6704   14.9032   -6.9058 C   0  0  0  0  0  0  0  0  0  0  0  0
   26.2177   16.1988   -7.5254 C   0  0  0  0  0  0  0  0  0  0  0  0
   27.7441   16.2254   -7.5381 C   0  0  0  0  0  0  0  0  0  0  0  0
   28.2634   17.5203   -8.1573 C   0  0  0  0  0  0  0  0  0  0  0  0
   29.7831   17.5387   -8.1660 C   0  0  0  0  0  0  0  0  0  0  0  0
   30.2980   18.8228   -8.7801 C   0  0  0  0  0  0  0  0  0  0  0  0
   31.8179   18.8329   -8.7849 C   0  0  0  0  0  0  0  0  0  0  0  0
   32.3288   20.1229   -9.4018 C   0  0  0  0  0  0  0  0  0  0  0  0
   33.8476   20.1270   -9.4037 C   0  0  0  0  0  0  0  0  0  0  0  0
   34.3583   21.4169  -10.0205 C   0  0  0  0  0  0  0  0  0  0  0  0
   35.8758   21.4218  -10.0206 C   0  0  0  0  0  0  0  0  0  0  0  0
   36.3855   22.7111  -10.6371 C   0  0  0  0  0  0  0  0  0  0  0  0
   37.9024   22.7153  -10.6391 C   0  0  0  0  0  0  0  0  0  0  0  0
   38.4125   24.0047  -11.2535 C   0  0  0  0  0  0  0  0  0  0  0  0
   39.9290   24.0084  -11.2575 C   0  0  0  0  0  0  0  0  0  0  0  0
   40.4394   25.2983  -11.8698 C   0  0  0  0  0  0  0  0  0  0  0  0
   41.9556   25.3033  -11.8722 C   0  0  0  0  0  0  0  0  0  0  0  0
   42.4663   26.5937  -12.4825 C   0  0  0  0  0  0  0  0  0  0  0  0
   43.9822   26.5988  -12.4850 C   0  0  0  0  0  0  0  0  0  0  0  0
   44.4929   27.8892  -13.0953 C   0  0  0  0  0  0  0  0  0  0  0  0
   46.0089   27.8943  -13.0977 C   0  0  0  0  0  0  0  0  0  0  0  0
   46.5196   29.1847  -13.7080 C   0  0  0  0  0  0  0  0  0  0  0  0
   48.0356   29.1897  -13.7105 C   0  0  0  0  0  0  0  0  0  0  0  0
   48.5462   30.4801  -14.3208 C   0  0  0  0  0  0  0  0  0  0  0  0
   50.0622   30.4852  -14.3232 C   0  0  0  0  0  0  0  0  0  0  0  0
   50.5729   31.7756  -14.9335 C   0  0  0  0  0  0  0  0  0  0  0  0
   52.0889   31.7798  -14.9378 C   0  0  0  0  0  0  0  0  0  0  0  0
   52.5995   33.0702  -15.5481 C   0  0  0  0  0  0  0  0  0  0  0  0
   54.1156   33.0736  -15.5541 C   0  0  0  0  0  0  0  0  0  0  0  0
   54.6262   34.3648  -16.1627 C   0  0  0  0  0  0  0  0  0  0  0  0
   56.1422   34.3673  -16.1706 C   0  0  0  0  0  0  0  0  0  0  0  0
   56.6529   35.6577  -16.7809 C   0  0  0  0  0  0  0  0  0  0  0  0
   58.1689   35.6610  -16.7870 C   0  0  0  0  0  0  0  0  0  0  0  0
   58.6795   36.9523  -17.3955 C   0  0  0  0  0  0  0  0  0  0  0  0
   60.1955   36.9548  -17.4034 C   0  0  0  0  0  0  0  0  0  0  0  0
   60.7062   38.2460  -18.0119 C   0  0  0  0  0  0  0  0  0  0  0  0
   62.2222   38.2494  -18.0180 C   0  0  0  0  0  0  0  0  0  0  0  0
   62.7328   39.5406  -18.6265 C   0  0  0  0  0  0  0  0  0  0  0  0
   64.2488   39.5440  -18.6325 C   0  0  0  0  0  0  0  0  0  0  0  0
   64.7595   40.8352  -19.2410 C   0  0  0  0  0  0  0  0  0  0  0  0
   66.2755   40.8386  -19.2471 C   0  0  0  0  0  0  0  0  0  0  0  0
   66.7861   42.1298  -19.8556 C   0  0  0  0  0  0  0  0  0  0  0  0
   68.3021   42.1332  -19.8617 C   0  0  0  0  0  0  0  0  0  0  0  0
   68.8127   43.4245  -20.4702 C   0  0  0  0  0  0  0  0  0  0  0  0
   70.3288   43.4277  -20.4762 C   0  0  0  0  0  0  0  0  0  0  0  0
   70.8392   44.7192  -21.0848 C   0  0  0  0  0  0  0  0  0  0  0  0
   72.3555   44.7230  -21.0889 C   0  0  0  0  0  0  0  0  0  0  0  0
   72.8657   46.0147  -21.6976 C   0  0  0  0  0  0  0  0  0  0  0  0
   74.3820   46.0188  -21.7018 C   0  0  0  0  0  0  0  0  0  0  0  0
   74.8930   47.3099  -22.3103 C   0  0  0  0  0  0  0  0  0  0  0  0
   76.4091   47.3148  -22.3148 C   0  0  0  0  0  0  0  0  0  0  0  0
   76.9208   48.6061  -22.9234 C   0  0  0  0  0  0  0  0  0  0  0  0
   78.4405   48.6115  -22.9260 C   0  0  0  0  0  0  0  0  0  0  0  0
   78.9549   49.9045  -23.5352 C   0  0  0  0  0  0  0  0  0  0  0  0
   80.4714   49.9111  -23.5383 C   0  0  0  0  0  0  0  0  0  0  0  0
   80.9887   51.2047  -24.1502 C   0  0  0  0  0  0  0  0  0  0  0  0
   82.5091   51.2257  -24.1579 C   0  0  0  0  0  0  0  0  0  0  0  0
   83.0221   52.5156  -24.7681 C   0  0  0  0  0  0  0  0  0  0  0  0
   22.5597  -11.2411   -6.2293 H   0  0  0  0  0  0  0  0  0  0  0  0
   23.9537  -10.2222   -6.6263 H   0  0  0  0  0  0  0  0  0  0  0  0
   22.4982  -10.1688   -7.6380 H   0  0  0  0  0  0  0  0  0  0  0  0
   22.6501   -9.2888   -4.7072 H   0  0  0  0  0  0  0  0  0  0  0  0
   21.2000   -9.2375   -5.7133 H   0  0  0  0  0  0  0  0  0  0  0  0
   22.3526   -7.6641   -7.2893 H   0  0  0  0  0  0  0  0  0  0  0  0
   23.8010   -7.7142   -6.2835 H   0  0  0  0  0  0  0  0  0  0  0  0
   22.5060   -6.8023   -4.3565 H   0  0  0  0  0  0  0  0  0  0  0  0
   21.0409   -6.7498   -5.3563 H   0  0  0  0  0  0  0  0  0  0  0  0
   22.1911   -5.2677   -6.8574 H   0  0  0  0  0  0  0  0  0  0  0  0
   22.3817   -4.4428   -4.1371 H   0  0  0  0  0  0  0  0  0  0  0  0
   22.0630   -2.9735   -6.5512 H   0  0  0  0  0  0  0  0  0  0  0  0
   22.2211   -2.1683   -3.7148 H   0  0  0  0  0  0  0  0  0  0  0  0
   20.7582   -2.1237   -4.7223 H   0  0  0  0  0  0  0  0  0  0  0  0
   21.9214   -0.5686   -6.3116 H   0  0  0  0  0  0  0  0  0  0  0  0
   23.3688   -0.6187   -5.2994 H   0  0  0  0  0  0  0  0  0  0  0  0
   22.0518    0.2956   -3.3752 H   0  0  0  0  0  0  0  0  0  0  0  0
   20.6065    0.3457   -4.3884 H   0  0  0  0  0  0  0  0  0  0  0  0
   21.7695    1.8980   -5.9713 H   0  0  0  0  0  0  0  0  0  0  0  0
   23.2159    1.8469   -4.9594 H   0  0  0  0  0  0  0  0  0  0  0  0
   21.9022    2.7618   -3.0346 H   0  0  0  0  0  0  0  0  0  0  0  0
   20.4552    2.8115   -4.0452 H   0  0  0  0  0  0  0  0  0  0  0  0
   21.6150    4.3627   -5.6314 H   0  0  0  0  0  0  0  0  0  0  0  0
   23.0634    4.3120   -4.6226 H   0  0  0  0  0  0  0  0  0  0  0  0
   21.7526    5.2254   -2.6944 H   0  0  0  0  0  0  0  0  0  0  0  0
   20.3041    5.2762   -3.7031 H   0  0  0  0  0  0  0  0  0  0  0  0
   21.4598    6.8352   -5.2845 H   0  0  0  0  0  0  0  0  0  0  0  0
   22.9086    6.7834   -4.2784 H   0  0  0  0  0  0  0  0  0  0  0  0
   21.6006    7.6975   -2.3429 H   0  0  0  0  0  0  0  0  0  0  0  0
   20.1486    7.7475   -3.3506 H   0  0  0  0  0  0  0  0  0  0  0  0
   21.2968    9.2726   -4.9295 H   0  0  0  0  0  0  0  0  0  0  0  0
   22.7523    9.2505   -3.9258 H   0  0  0  0  0  0  0  0  0  0  0  0
   21.4572   10.2361   -2.0176 H   0  0  0  0  0  0  0  0  0  0  0  0
   19.9995   10.2892   -3.0178 H   0  0  0  0  0  0  0  0  0  0  0  0
   19.8755   11.8429   -5.3981 H   0  0  0  0  0  0  0  0  0  0  0  0
   21.3429   11.0664   -6.0188 H   0  0  0  0  0  0  0  0  0  0  0  0
   23.6812   12.5687   -6.7887 H   0  0  0  0  0  0  0  0  0  0  0  0
   23.6918   13.3558   -5.1721 H   0  0  0  0  0  0  0  0  0  0  0  0
   26.0157   14.0395   -7.4825 H   0  0  0  0  0  0  0  0  0  0  0  0
   26.0179   14.8084   -5.8723 H   0  0  0  0  0  0  0  0  0  0  0  0
   25.8570   17.0706   -6.9632 H   0  0  0  0  0  0  0  0  0  0  0  0
   25.8569   16.3085   -8.5569 H   0  0  0  0  0  0  0  0  0  0  0  0
   28.1257   15.3689   -8.1081 H   0  0  0  0  0  0  0  0  0  0  0  0
   28.1256   16.1315   -6.5135 H   0  0  0  0  0  0  0  0  0  0  0  0
   27.8878   18.3834   -7.5918 H   0  0  0  0  0  0  0  0  0  0  0  0
   27.8878   17.6219   -9.1841 H   0  0  0  0  0  0  0  0  0  0  0  0
   30.1622   16.6763   -8.7328 H   0  0  0  0  0  0  0  0  0  0  0  0
   30.1622   17.4385   -7.1389 H   0  0  0  0  0  0  0  0  0  0  0  0
   29.9227   19.6875   -8.2142 H   0  0  0  0  0  0  0  0  0  0  0  0
   29.9227   18.9251   -9.8084 H   0  0  0  0  0  0  0  0  0  0  0  0
   32.1944   17.9732   -9.3525 H   0  0  0  0  0  0  0  0  0  0  0  0
   32.1943   18.7351   -7.7593 H   0  0  0  0  0  0  0  0  0  0  0  0
   31.9549   20.9828   -8.8345 H   0  0  0  0  0  0  0  0  0  0  0  0
   31.9550   20.2211  -10.4272 H   0  0  0  0  0  0  0  0  0  0  0  0
   34.2235   19.2680   -9.9715 H   0  0  0  0  0  0  0  0  0  0  0  0
   34.2233   20.0298   -8.3785 H   0  0  0  0  0  0  0  0  0  0  0  0
   33.9821   22.2772   -9.4541 H   0  0  0  0  0  0  0  0  0  0  0  0
   33.9844   21.5146  -11.0467 H   0  0  0  0  0  0  0  0  0  0  0  0
   36.2527   20.5619  -10.5872 H   0  0  0  0  0  0  0  0  0  0  0  0
   36.2503   21.3245   -8.9945 H   0  0  0  0  0  0  0  0  0  0  0  0
   36.0098   23.5712  -10.0697 H   0  0  0  0  0  0  0  0  0  0  0  0
   36.0100   22.8094  -11.6629 H   0  0  0  0  0  0  0  0  0  0  0  0
   38.2782   21.8557  -11.2077 H   0  0  0  0  0  0  0  0  0  0  0  0
   38.2782   22.6155   -9.6134 H   0  0  0  0  0  0  0  0  0  0  0  0
   38.0378   24.8643  -10.6841 H   0  0  0  0  0  0  0  0  0  0  0  0
   38.0356   24.1055  -12.2789 H   0  0  0  0  0  0  0  0  0  0  0  0
   40.3039   23.1495  -11.8280 H   0  0  0  0  0  0  0  0  0  0  0  0
   40.3062   23.9062  -10.2322 H   0  0  0  0  0  0  0  0  0  0  0  0
   40.0634   26.1576  -11.3001 H   0  0  0  0  0  0  0  0  0  0  0  0
   40.0633   25.4001  -12.8957 H   0  0  0  0  0  0  0  0  0  0  0  0
   42.3317   24.4448  -12.4430 H   0  0  0  0  0  0  0  0  0  0  0  0
   42.3318   25.2000  -10.8464 H   0  0  0  0  0  0  0  0  0  0  0  0
   42.0900   27.4523  -11.9117 H   0  0  0  0  0  0  0  0  0  0  0  0
   42.0900   26.6970  -13.5084 H   0  0  0  0  0  0  0  0  0  0  0  0
   44.3584   25.7403  -13.0558 H   0  0  0  0  0  0  0  0  0  0  0  0
   44.3584   26.4955  -11.4591 H   0  0  0  0  0  0  0  0  0  0  0  0
   44.1167   28.7477  -12.5244 H   0  0  0  0  0  0  0  0  0  0  0  0
   44.1167   27.9925  -14.1211 H   0  0  0  0  0  0  0  0  0  0  0  0
   46.3851   27.0357  -13.6686 H   0  0  0  0  0  0  0  0  0  0  0  0
   46.3851   27.7910  -12.0719 H   0  0  0  0  0  0  0  0  0  0  0  0
   46.1434   30.0432  -13.1372 H   0  0  0  0  0  0  0  0  0  0  0  0
   46.1434   29.2880  -14.7339 H   0  0  0  0  0  0  0  0  0  0  0  0
   48.4118   28.3312  -14.2813 H   0  0  0  0  0  0  0  0  0  0  0  0
   48.4118   29.0864  -12.6846 H   0  0  0  0  0  0  0  0  0  0  0  0
   48.1700   31.3387  -13.7499 H   0  0  0  0  0  0  0  0  0  0  0  0
   48.1700   30.5834  -15.3466 H   0  0  0  0  0  0  0  0  0  0  0  0
   50.4384   29.6267  -14.8941 H   0  0  0  0  0  0  0  0  0  0  0  0
   50.4385   30.3819  -13.2974 H   0  0  0  0  0  0  0  0  0  0  0  0
   50.1978   32.6341  -14.3618 H   0  0  0  0  0  0  0  0  0  0  0  0
   50.1955   31.8796  -15.9589 H   0  0  0  0  0  0  0  0  0  0  0  0
   52.4639   30.9213  -15.5095 H   0  0  0  0  0  0  0  0  0  0  0  0
   52.4663   31.6758  -13.9124 H   0  0  0  0  0  0  0  0  0  0  0  0
   52.2256   33.9286  -14.9755 H   0  0  0  0  0  0  0  0  0  0  0  0
   52.2210   33.1750  -16.5730 H   0  0  0  0  0  0  0  0  0  0  0  0
   54.4893   32.2159  -16.1279 H   0  0  0  0  0  0  0  0  0  0  0  0
   54.4942   32.9674  -14.5295 H   0  0  0  0  0  0  0  0  0  0  0  0
   54.2535   35.2224  -15.5881 H   0  0  0  0  0  0  0  0  0  0  0  0
   54.2465   34.4716  -17.1869 H   0  0  0  0  0  0  0  0  0  0  0  0
   56.5150   33.5090  -16.7440 H   0  0  0  0  0  0  0  0  0  0  0  0
   56.5219   34.2618  -15.1462 H   0  0  0  0  0  0  0  0  0  0  0  0
   56.2790   36.5161  -16.2083 H   0  0  0  0  0  0  0  0  0  0  0  0
   56.2743   35.7624  -17.8057 H   0  0  0  0  0  0  0  0  0  0  0  0
   58.5426   34.8034  -17.3608 H   0  0  0  0  0  0  0  0  0  0  0  0
   58.5475   35.5549  -15.7623 H   0  0  0  0  0  0  0  0  0  0  0  0
   58.3068   37.8098  -16.8209 H   0  0  0  0  0  0  0  0  0  0  0  0
   58.2998   37.0592  -18.4197 H   0  0  0  0  0  0  0  0  0  0  0  0
   60.5682   36.0972  -17.9780 H   0  0  0  0  0  0  0  0  0  0  0  0
   60.5752   36.8479  -16.3792 H   0  0  0  0  0  0  0  0  0  0  0  0
   60.3324   39.1037  -17.4381 H   0  0  0  0  0  0  0  0  0  0  0  0
   60.3276   38.3522  -19.0366 H   0  0  0  0  0  0  0  0  0  0  0  0
   62.5960   37.3918  -18.5918 H   0  0  0  0  0  0  0  0  0  0  0  0
   62.6007   38.1432  -16.9933 H   0  0  0  0  0  0  0  0  0  0  0  0
   62.3590   40.3983  -18.0527 H   0  0  0  0  0  0  0  0  0  0  0  0
   62.3543   39.6468  -19.6512 H   0  0  0  0  0  0  0  0  0  0  0  0
   64.6227   38.6864  -19.2063 H   0  0  0  0  0  0  0  0  0  0  0  0
   64.6274   39.4378  -17.6079 H   0  0  0  0  0  0  0  0  0  0  0  0
   64.3856   41.6929  -18.6673 H   0  0  0  0  0  0  0  0  0  0  0  0
   64.3809   40.9414  -20.2657 H   0  0  0  0  0  0  0  0  0  0  0  0
   66.6493   39.9810  -19.8209 H   0  0  0  0  0  0  0  0  0  0  0  0
   66.6540   40.7324  -18.2224 H   0  0  0  0  0  0  0  0  0  0  0  0
   66.4123   42.9875  -19.2818 H   0  0  0  0  0  0  0  0  0  0  0  0
   66.4076   42.2360  -20.8803 H   0  0  0  0  0  0  0  0  0  0  0  0
   68.6760   41.2756  -20.4355 H   0  0  0  0  0  0  0  0  0  0  0  0
   68.6807   42.0270  -18.8370 H   0  0  0  0  0  0  0  0  0  0  0  0
   68.4389   44.2820  -19.8964 H   0  0  0  0  0  0  0  0  0  0  0  0
   68.4342   43.5306  -21.4949 H   0  0  0  0  0  0  0  0  0  0  0  0
   70.7026   42.5702  -21.0500 H   0  0  0  0  0  0  0  0  0  0  0  0
   70.7072   43.3216  -19.4516 H   0  0  0  0  0  0  0  0  0  0  0  0
   70.4643   45.5766  -20.5119 H   0  0  0  0  0  0  0  0  0  0  0  0
   70.4619   44.8244  -22.1099 H   0  0  0  0  0  0  0  0  0  0  0  0
   72.7301   43.8657  -21.6620 H   0  0  0  0  0  0  0  0  0  0  0  0
   72.7325   44.6179  -20.0639 H   0  0  0  0  0  0  0  0  0  0  0  0
   72.4909   46.8719  -21.1246 H   0  0  0  0  0  0  0  0  0  0  0  0
   72.4886   46.1198  -22.7225 H   0  0  0  0  0  0  0  0  0  0  0  0
   74.7568   45.1612  -22.2746 H   0  0  0  0  0  0  0  0  0  0  0  0
   74.7591   45.9134  -20.6767 H   0  0  0  0  0  0  0  0  0  0  0  0
   74.5175   48.1677  -21.7374 H   0  0  0  0  0  0  0  0  0  0  0  0
   74.5152   47.4154  -23.3355 H   0  0  0  0  0  0  0  0  0  0  0  0
   76.7839   46.4567  -22.8875 H   0  0  0  0  0  0  0  0  0  0  0  0
   76.7861   47.2089  -21.2894 H   0  0  0  0  0  0  0  0  0  0  0  0
   76.5442   49.4634  -22.3512 H   0  0  0  0  0  0  0  0  0  0  0  0
   76.5441   48.7105  -23.9488 H   0  0  0  0  0  0  0  0  0  0  0  0
   78.8129   47.7539  -23.4979 H   0  0  0  0  0  0  0  0  0  0  0  0
   78.8130   48.5068  -21.9004 H   0  0  0  0  0  0  0  0  0  0  0  0
   78.5742   50.7606  -22.9628 H   0  0  0  0  0  0  0  0  0  0  0  0
   78.5741   50.0078  -24.5600 H   0  0  0  0  0  0  0  0  0  0  0  0
   80.8453   49.0527  -24.1092 H   0  0  0  0  0  0  0  0  0  0  0  0
   80.8451   49.8078  -22.5126 H   0  0  0  0  0  0  0  0  0  0  0  0
   80.6054   52.0607  -23.5795 H   0  0  0  0  0  0  0  0  0  0  0  0
   80.6078   51.3050  -25.1750 H   0  0  0  0  0  0  0  0  0  0  0  0
   82.8915   50.3714  -24.7296 H   0  0  0  0  0  0  0  0  0  0  0  0
   82.8891   51.1272  -23.1338 H   0  0  0  0  0  0  0  0  0  0  0  0
   82.6691   52.6214  -25.8006 H   0  0  0  0  0  0  0  0  0  0  0  0
   84.1103   52.5297  -24.7731 H   0  0  0  0  0  0  0  0  0  0  0  0
   82.6668   53.3811  -24.1965 H   0  0  0  0  0  0  0  0  0  0  0  0
  1  2  1  0  0  0  0
  1 82  1  0  0  0  0
  1 83  1  0  0  0  0
  1 84  1  0  0  0  0
  2  3  1  0  0  0  0
  2 85  1  0  0  0  0
  2 86  1  0  0  0  0
  3  4  1  0  0  0  0
  3 87  1  0  0  0  0
  3 88  1  0  0  0  0
  4  5  1  0  0  0  0
  4 89  1  0  0  0  0
  4 90  1  0  0  0  0
  5  6  1  0  0  0  0
  5 91  1  0  0  0  0
  6  7  1  0  0  0  0
  6 92  1  0  0  0  0
  7  8  1  0  0  0  0
  7 93  1  0  0  0  0
  8  9  1  0  0  0  0
  8 94  1  0  0  0  0
  8 95  1  0  0  0  0
  9 10  1  0  0  0  0
  9 96  1  0  0  0  0
  9 97  1  0  0  0  0
 10 11  1  0  0  0  0
 10 98  1  0  0  0  0
 10 99  1  0  0  0  0
 11 12  1  0  0  0  0
 11100  1  0  0  0  0
 11101  1  0  0  0  0
 12 13  1  0  0  0  0
 12102  1  0  0  0  0
 12103  1  0  0  0  0
 13 14  1  0  0  0  0
 13104  1  0  0  0  0
 13105  1  0  0  0  0
 14 15  1  0  0  0  0
 14106  1  0  0  0  0
 14107  1  0  0  0  0
 15 16  1  0  0  0  0
 15108  1  0  0  0  0
 15109  1  0  0  0  0
 16 17  1  0  0  0  0
 16110  1  0  0  0  0
 16111  1  0  0  0  0
 17 18  1  0  0  0  0
 17112  1  0  0  0  0
 17113  1  0  0  0  0
 18 19  1  0  0  0  0
 18114  1  0  0  0  0
 18115  1  0  0  0  0
 19 20  1  0  0  0  0
 20 21  1  0  0  0  0
 20116  1  0  0  0  0
 20117  1  0  0  0  0
 21 22  1  0  0  0  0
 22 23  1  0  0  0  0
 22118  1  0  0  0  0
 22119  1  0  0  0  0
 23 24  1  0  0  0  0
 24 25  1  0  0  0  0
 24120  1  0  0  0  0
 24121  1  0  0  0  0
 25 26  1  0  0  0  0
 25122  1  0  0  0  0
 25123  1  0  0  0  0
 26 27  1  0  0  0  0
 26124  1  0  0  0  0
 26125  1  0  0  0  0
 27 28  1  0  0  0  0
 27126  1  0  0  0  0
 27127  1  0  0  0  0
 28 29  1  0  0  0  0
 28128  1  0  0  0  0
 28129  1  0  0  0  0
 29 30  1  0  0  0  0
 29130  1  0  0  0  0
 29131  1  0  0  0  0
 30 31  1  0  0  0  0
 30132  1  0  0  0  0
 30133  1  0  0  0  0
 31 32  1  0  0  0  0
 31134  1  0  0  0  0
 31135  1  0  0  0  0
 32 33  1  0  0  0  0
 32136  1  0  0  0  0
 32137  1  0  0  0  0
 33 34  1  0  0  0  0
 33138  1  0  0  0  0
 33139  1  0  0  0  0
 34 35  1  0  0  0  0
 34140  1  0  0  0  0
 34141  1  0  0  0  0
 35 36  1  0  0  0  0
 35142  1  0  0  0  0
 35143  1  0  0  0  0
 36 37  1  0  0  0  0
 36144  1  0  0  0  0
 36145  1  0  0  0  0
 37 38  1  0  0  0  0
 37146  1  0  0  0  0
 37147  1  0  0  0  0
 38 39  1  0  0  0  0
 38148  1  0  0  0  0
 38149  1  0  0  0  0
 39 40  1  0  0  0  0
 39150  1  0  0  0  0
 39151  1  0  0  0  0
 40 41  1  0  0  0  0
 40152  1  0  0  0  0
 40153  1  0  0  0  0
 41 42  1  0  0  0  0
 41154  1  0  0  0  0
 41155  1  0  0  0  0
 42 43  1  0  0  0  0
 42156  1  0  0  0  0
 42157  1  0  0  0  0
 43 44  1  0  0  0  0
 43158  1  0  0  0  0
 43159  1  0  0  0  0
 44 45  1  0  0  0  0
 44160  1  0  0  0  0
 44161  1  0  0  0  0
 45 46  1  0  0  0  0
 45162  1  0  0  0  0
 45163  1  0  0  0  0
 46 47  1  0  0  0  0
 46164  1  0  0  0  0
 46165  1  0  0  0  0
 47 48  1  0  0  0  0
 47166  1  0  0  0  0
 47167  1  0  0  0  0
 48 49  1  0  0  0  0
 48168  1  0  0  0  0
 48169  1  0  0  0  0
 49 50  1  0  0  0  0
 49170  1  0  0  0  0
 49171  1  0  0  0  0
 50 51  1  0  0  0  0
 50172  1  0  0  0  0
 50173  1  0  0  0  0
 51 52  1  0  0  0  0
 51174  1  0  0  0  0
 51175  1  0  0  0  0
 52 53  1  0  0  0  0
 52176  1  0  0  0  0
 52177  1  0  0  0  0
 53 54  1  0  0  0  0
 53178  1  0  0  0  0
 53179  1  0  0  0  0
 54 55  1  0  0  0  0
 54180  1  0  0  0  0
 54181  1  0  0  0  0
 55 56  1  0  0  0  0
 55182  1  0  0  0  0
 55183  1  0  0  0  0
 56 57  1  0  0  0  0
 56184  1  0  0  0  0
 56185  1  0  0  0  0
 57 58  1  0  0  0  0
 57186  1  0  0  0  0
 57187  1  0  0  0  0
 58 59  1  0  0  0  0
 58188  1  0  0  0  0
 58189  1  0  0  0  0
 59 60  1  0  0  0  0
 59190  1  0  0  0  0
 59191  1  0  0  0  0
 60 61  1  0  0  0  0
 60192  1  0  0  0  0
 60193  1  0  0  0  0
 61 62  1  0  0  0  0
 61194  1  0  0  0  0
 61195  1  0  0  0  0
 62 63  1  0  0  0  0
 62196  1  0  0  0  0
 62197  1  0  0  0  0
 63 64  1  0  0  0  0
 63198  1  0  0  0  0
 63199  1  0  0  0  0
 64 65  1  0  0  0  0
 64200  1  0  0  0  0
 64201  1  0  0  0  0
 65 66  1  0  0  0  0
 65202  1  0  0  0  0
 65203  1  0  0  0  0
 66 67  1  0  0  0  0
 66204  1  0  0  0  0
 66205  1  0  0  0  0
 67 68  1  0  0  0  0
 67206  1  0  0  0  0
 67207  1  0  0  0  0
 68 69  1  0  0  0  0
 68208  1  0  0  0  0
 68209  1  0  0  0  0
 69 70  1  0  0  0  0
 69210  1  0  0  0  0
 69211  1  0  0  0  0
 70 71  1  0  0  0  0
 70212  1  0  0  0  0
 70213  1  0  0  0  0
 71 72  1  0  0  0  0
 71214  1  0  0  0  0
 71215  1  0  0  0  0
 72 73  1  0  0  0  0
 72216  1  0  0  0  0
 72217  1  0  0  0  0
 73 74  1  0  0  0  0
 73218  1  0  0  0  0
 73219  1  0  0  0  0
 74 75  1  0  0  0  0
 74220  1  0  0  0  0
 74221  1  0  0  0  0
 75 76  1  0  0  0  0
 75222  1  0  0  0  0
 75223  1  0  0  0  0
 76 77  1  0  0  0  0
 76224  1  0  0  0  0
 76225  1  0  0  0  0
 77 78  1  0  0  0  0
 77226  1  0  0  0  0
 77227  1  0  0  0  0
 78 79  1  0  0  0  0
 78228  1  0  0  0  0
 78229  1  0  0  0  0
 79 80  1  0  0  0  0
 79230  1  0  0  0  0
 79231  1  0  0  0  0
 80 81  1  0  0  0  0
 80232  1  0  0  0  0
 80233  1  0  0  0  0
 81234  1  0  0  0  0
 81235  1  0  0  0  0
 81236  1  0  0  0  0
M  END
$$$$
