
 OpenBabel04232216583D

167166  0  0  0  0  0  0  0  0999 V2000
   15.8830   27.2656   -3.7675 N   0  0  0  0  0  0  0  0  0  0  0  0
   17.3001   27.4213   -3.7180 N   0  0  0  0  0  0  0  0  0  0  0  0
   17.8958   26.1163   -3.4458 C   0  0  0  0  0  0  0  0  0  0  0  0
   19.4138   26.2475   -3.3891 C   0  0  0  0  0  0  0  0  0  0  0  0
   20.0569   24.8952   -3.1079 C   0  0  0  0  0  0  0  0  0  0  0  0
   21.5032   25.0511   -3.0734 N   0  0  0  0  0  0  0  0  0  0  0  0
   22.0944   23.7807   -2.8158 N   0  0  0  0  0  0  0  0  0  0  0  0
   23.5075   23.9168   -2.7620 N   0  0  0  0  0  0  0  0  0  0  0  0
   23.8830   24.8221   -1.7218 N   0  0  0  0  0  0  0  0  0  0  0  0
   23.3942   24.3392   -0.4637 N   0  0  0  0  0  0  0  0  0  0  0  0
   23.9749   23.0530   -0.2100 N   0  0  0  0  0  0  0  0  0  0  0  0
   25.3870   23.1893   -0.1863 N   0  0  0  0  0  0  0  0  0  0  0  0
   25.7694   24.0913    0.8461 N   0  0  0  0  0  0  0  0  0  0  0  0
   25.2938   23.6295    2.1071 N   0  0  0  0  0  0  0  0  0  0  0  0
   25.8605   22.3435    2.4034 N   0  0  0  0  0  0  0  0  0  0  0  0
   27.2917   22.4445    2.4312 N   0  0  0  0  0  0  0  0  0  0  0  0
   27.6884   23.3772    3.4599 N   0  0  0  0  0  0  0  0  0  0  0  0
   27.2032   22.9336    4.7425 N   0  0  0  0  0  0  0  0  0  0  0  0
   27.7475   21.6384    5.0419 N   0  0  0  0  0  0  0  0  0  0  0  0
   29.1728   21.7246    5.0399 N   0  0  0  0  0  0  0  0  0  0  0  0
   29.5643   22.6593    6.0359 N   0  0  0  0  0  0  0  0  0  0  0  0
   29.0915   22.2380    7.3119 N   0  0  0  0  0  0  0  0  0  0  0  0
   29.6115   20.9630    7.6227 N   0  0  0  0  0  0  0  0  0  0  0  0
   31.0256   21.0161    7.6470 N   0  0  0  0  0  0  0  0  0  0  0  0
   31.4612   21.9572    8.6387 N   0  0  0  0  0  0  0  0  0  0  0  0
   30.9935   21.5440    9.9417 N   0  0  0  0  0  0  0  0  0  0  0  0
   31.5114   20.2348   10.2680 N   0  0  0  0  0  0  0  0  0  0  0  0
   32.9354   20.2950   10.2597 N   0  0  0  0  0  0  0  0  0  0  0  0
   33.3430   21.2718   11.2091 N   0  0  0  0  0  0  0  0  0  0  0  0
   32.8458   20.8765   12.4868 N   0  0  0  0  0  0  0  0  0  0  0  0
   33.3450   19.5818   12.7942 N   0  0  0  0  0  0  0  0  0  0  0  0
   34.7764   19.6004   12.8385 N   0  0  0  0  0  0  0  0  0  0  0  0
   35.2425   20.5512   13.8134 N   0  0  0  0  0  0  0  0  0  0  0  0
   34.7823   20.1779   15.1402 N   0  0  0  0  0  0  0  0  0  0  0  0
   35.2701   18.8699   15.4728 N   0  0  0  0  0  0  0  0  0  0  0  0
   36.7010   18.8889   15.4428 N   0  0  0  0  0  0  0  0  0  0  0  0
   37.1558   19.8471   16.3950 N   0  0  0  0  0  0  0  0  0  0  0  0
   36.6786   19.5033   17.6937 N   0  0  0  0  0  0  0  0  0  0  0  0
   37.1412   18.2088   18.0365 N   0  0  0  0  0  0  0  0  0  0  0  0
   38.5656   18.2073   18.0302 N   0  0  0  0  0  0  0  0  0  0  0  0
   39.0725   19.1543   18.9987 N   0  0  0  0  0  0  0  0  0  0  0  0
   38.5868   18.8308   20.3213 N   0  0  0  0  0  0  0  0  0  0  0  0
   39.0381   17.5186   20.6461 N   0  0  0  0  0  0  0  0  0  0  0  0
   40.4703   17.5130   20.6184 N   0  0  0  0  0  0  0  0  0  0  0  0
   40.9543   18.4935   21.5317 N   0  0  0  0  0  0  0  0  0  0  0  0
   40.4841   18.1693   22.8349 N   0  0  0  0  0  0  0  0  0  0  0  0
   40.9578   16.8667   23.2506 N   0  0  0  0  0  0  0  0  0  0  0  0
   42.3973   16.8171   23.2400 N   0  0  0  0  0  0  0  0  0  0  0  0
   42.9178   17.7817   24.1596 N   0  0  0  0  0  0  0  0  0  0  0  0
   42.4168   17.4837   25.4592 N   0  0  0  0  0  0  0  0  0  0  0  0
   42.8482   16.1800   25.8293 N   0  0  0  0  0  0  0  0  0  0  0  0
   44.2696   16.1243   25.7966 N   0  0  0  0  0  0  0  0  0  0  0  0
   44.8084   17.0779   26.7242 N   0  0  0  0  0  0  0  0  0  0  0  0
   44.3314   16.8032   28.0476 N   0  0  0  0  0  0  0  0  0  0  0  0
   44.7413   15.4899   28.4226 N   0  0  0  0  0  0  0  0  0  0  0  0
   46.1721   15.4298   28.3708 N   0  0  0  0  0  0  0  0  0  0  0  0
   46.7128   16.4059   29.2722 N   0  0  0  0  0  0  0  0  0  0  0  0
   46.2410   16.1365   30.5992 N   0  0  0  0  0  0  0  0  0  0  0  0
   46.6718   14.8277   31.0427 N   0  0  0  0  0  0  0  0  0  0  0  0
   48.1039   14.7237   31.0108 N   0  0  0  0  0  0  0  0  0  0  0  0
   48.6560   15.6899   31.8956 N   0  0  0  0  0  0  0  0  0  0  0  0
   48.1510   15.4551   33.1934 N   0  0  0  0  0  0  0  0  0  0  0  0
   48.5386   14.1412   33.5922 N   0  0  0  0  0  0  0  0  0  0  0  0
   49.9705   14.0363   33.5706 N   0  0  0  0  0  0  0  0  0  0  0  0
   50.5419   15.0208   34.4394 N   0  0  0  0  0  0  0  0  0  0  0  0
   50.0648   14.7832   35.7778 N   0  0  0  0  0  0  0  0  0  0  0  0
   50.4402   13.4516   36.2072 N   0  0  0  0  0  0  0  0  0  0  0  0
   51.8741   13.3215   36.1635 N   0  0  0  0  0  0  0  0  0  0  0  0
   52.4624   14.2940   37.0514 N   0  0  0  0  0  0  0  0  0  0  0  0
   51.9904   14.0807   38.3890 N   0  0  0  0  0  0  0  0  0  0  0  0
   52.3357   12.7747   38.8066 N   0  0  0  0  0  0  0  0  0  0  0  0
   53.7504   12.6318   38.7557 N   0  0  0  0  0  0  0  0  0  0  0  0
   54.3540   13.6096   39.6243 N   0  0  0  0  0  0  0  0  0  0  0  0
   53.8692   13.4167   40.9640 N   0  0  0  0  0  0  0  0  0  0  0  0
   54.2242   12.0864   41.4212 N   0  0  0  0  0  0  0  0  0  0  0  0
   55.6538   11.9180   41.3769 N   0  0  0  0  0  0  0  0  0  0  0  0
   56.2680   12.9011   42.2183 N   0  0  0  0  0  0  0  0  0  0  0  0
   55.7891   12.7283   43.5553 N   0  0  0  0  0  0  0  0  0  0  0  0
   56.1168   11.4129   44.0075 N   0  0  0  0  0  0  0  0  0  0  0  0
   57.5349   11.2272   43.9678 N   0  0  0  0  0  0  0  0  0  0  0  0
   58.1876   12.1908   44.8212 N   0  0  0  0  0  0  0  0  0  0  0  0
   15.4538   28.1750   -3.9399 H   0  0  0  0  0  0  0  0  0  0  0  0
   15.5409   26.9345   -2.8655 H   0  0  0  0  0  0  0  0  0  0  0  0
   17.5511   28.0674   -2.9701 H   0  0  0  0  0  0  0  0  0  0  0  0
   17.6325   25.4023   -4.2335 H   0  0  0  0  0  0  0  0  0  0  0  0
   17.5409   25.7215   -2.4868 H   0  0  0  0  0  0  0  0  0  0  0  0
   19.6913   26.9555   -2.6004 H   0  0  0  0  0  0  0  0  0  0  0  0
   19.7832   26.6359   -4.3444 H   0  0  0  0  0  0  0  0  0  0  0  0
   19.7788   24.1951   -3.8998 H   0  0  0  0  0  0  0  0  0  0  0  0
   19.6874   24.5129   -2.1516 H   0  0  0  0  0  0  0  0  0  0  0  0
   21.7572   25.6829   -2.3111 H   0  0  0  0  0  0  0  0  0  0  0  0
   21.8566   23.1164   -3.5425 H   0  0  0  0  0  0  0  0  0  0  0  0
   23.8597   24.2707   -3.6411 H   0  0  0  0  0  0  0  0  0  0  0  0
   23.4839   25.7361   -1.8998 H   0  0  0  0  0  0  0  0  0  0  0  0
   22.3729   24.2501   -0.4974 H   0  0  0  0  0  0  0  0  0  0  0  0
   23.7090   22.3989   -0.9550 H   0  0  0  0  0  0  0  0  0  0  0  0
   25.7654   23.5381   -1.0598 H   0  0  0  0  0  0  0  0  0  0  0  0
   25.3765   25.0143    0.6834 H   0  0  0  0  0  0  0  0  0  0  0  0
   24.2696   23.5628    2.0990 H   0  0  0  0  0  0  0  0  0  0  0  0
   25.5824   21.6855    1.6597 H   0  0  0  0  0  0  0  0  0  0  0  0
   27.6251   22.8045    1.5371 H   0  0  0  0  0  0  0  0  0  0  0  0
   27.2624   24.2774    3.2505 H   0  0  0  0  0  0  0  0  0  0  0  0
   26.1926   22.8568    4.6894 H   0  0  0  0  0  0  0  0  0  0  0  0
   27.4764   20.9968    4.3075 H   0  0  0  0  0  0  0  0  0  0  0  0
   29.4915   22.0454    4.1199 H   0  0  0  0  0  0  0  0  0  0  0  0
   29.1619   23.5770    5.8357 H   0  0  0  0  0  0  0  0  0  0  0  0
   28.0770   22.1710    7.3057 H   0  0  0  0  0  0  0  0  0  0  0  0
   29.3338   20.2938    6.9126 H   0  0  0  0  0  0  0  0  0  0  0  0
   31.3571   21.3293    6.7365 H   0  0  0  0  0  0  0  0  0  0  0  0
   31.0456   22.8763    8.3870 H   0  0  0  0  0  0  0  0  0  0  0  0
   29.9703   21.4837    9.8738 H   0  0  0  0  0  0  0  0  0  0  0  0
   31.1981   19.6159    9.5196 H   0  0  0  0  0  0  0  0  0  0  0  0
   33.2236   20.6068    9.3395 H   0  0  0  0  0  0  0  0  0  0  0  0
   32.9420   22.1749   10.9467 H   0  0  0  0  0  0  0  0  0  0  0  0
   31.8324   20.8136   12.4741 H   0  0  0  0  0  0  0  0  0  0  0  0
   33.0537   18.8977   12.1036 H   0  0  0  0  0  0  0  0  0  0  0  0
   35.1349   19.8824   11.9273 H   0  0  0  0  0  0  0  0  0  0  0  0
   34.8772   21.4806   13.5548 H   0  0  0  0  0  0  0  0  0  0  0  0
   33.7653   20.1394   15.1062 H   0  0  0  0  0  0  0  0  0  0  0  0
   34.9526   18.2287   14.7533 H   0  0  0  0  0  0  0  0  0  0  0  0
   36.9917   19.1661   14.4965 H   0  0  0  0  0  0  0  0  0  0  0  0
   36.7845   20.7681   16.1589 H   0  0  0  0  0  0  0  0  0  0  0  0
   35.6607   19.4870   17.6871 H   0  0  0  0  0  0  0  0  0  0  0  0
   36.7927   17.5347   17.3447 H   0  0  0  0  0  0  0  0  0  0  0  0
   38.8798   18.4868   17.0941 H   0  0  0  0  0  0  0  0  0  0  0  0
   38.7000   20.0693   18.7351 H   0  0  0  0  0  0  0  0  0  0  0  0
   37.5584   18.8475   20.2558 H   0  0  0  0  0  0  0  0  0  0  0  0
   38.7013   16.8782   19.9322 H   0  0  0  0  0  0  0  0  0  0  0  0
   40.7994   17.7735   19.7005 H   0  0  0  0  0  0  0  0  0  0  0  0
   40.6184   19.4228   21.2653 H   0  0  0  0  0  0  0  0  0  0  0  0
   39.4692   18.1534   22.8678 H   0  0  0  0  0  0  0  0  0  0  0  0
   40.6102   16.1763   22.5836 H   0  0  0  0  0  0  0  0  0  0  0  0
   42.6868   17.0386   22.2751 H   0  0  0  0  0  0  0  0  0  0  0  0
   42.5693   18.6987   23.9026 H   0  0  0  0  0  0  0  0  0  0  0  0
   41.3864   17.5142   25.4196 H   0  0  0  0  0  0  0  0  0  0  0  0
   42.4943   15.5008   25.1567 H   0  0  0  0  0  0  0  0  0  0  0  0
   44.5893   16.3386   24.8433 H   0  0  0  0  0  0  0  0  0  0  0  0
   44.4706   18.0033   26.4532 H   0  0  0  0  0  0  0  0  0  0  0  0
   43.3042   16.8477   28.0191 H   0  0  0  0  0  0  0  0  0  0  0  0
   44.3778   14.8269   27.7446 H   0  0  0  0  0  0  0  0  0  0  0  0
   46.4741   15.6499   27.4208 H   0  0  0  0  0  0  0  0  0  0  0  0
   46.3803   17.3313   29.0093 H   0  0  0  0  0  0  0  0  0  0  0  0
   45.2157   16.1947   30.6157 H   0  0  0  0  0  0  0  0  0  0  0  0
   46.2935   14.1352   30.3965 H   0  0  0  0  0  0  0  0  0  0  0  0
   48.3952   14.9131   30.0395 H   0  0  0  0  0  0  0  0  0  0  0  0
   48.3481   16.6170   31.6088 H   0  0  0  0  0  0  0  0  0  0  0  0
   47.1248   15.5234   33.1679 H   0  0  0  0  0  0  0  0  0  0  0  0
   48.1411   13.4611   32.9301 H   0  0  0  0  0  0  0  0  0  0  0  0
   50.2941   14.2365   32.6231 H   0  0  0  0  0  0  0  0  0  0  0  0
   50.2321   15.9443   34.1077 H   0  0  0  0  0  0  0  0  0  0  0  0
   49.0505   14.8395   35.7775 H   0  0  0  0  0  0  0  0  0  0  0  0
   50.0538   12.7740   35.5528 H   0  0  0  0  0  0  0  0  0  0  0  0
   52.1700   13.4872   35.1906 H   0  0  0  0  0  0  0  0  0  0  0  0
   52.1794   15.2338   36.7325 H   0  0  0  0  0  0  0  0  0  0  0  0
   50.9697   14.1623   38.4065 H   0  0  0  0  0  0  0  0  0  0  0  0
   51.9155   12.0948   38.1746 H   0  0  0  0  0  0  0  0  0  0  0  0
   54.0526   12.7903   37.7841 H   0  0  0  0  0  0  0  0  0  0  0  0
   54.0542   14.5411   39.2867 H   0  0  0  0  0  0  0  0  0  0  0  0
   52.8515   13.4871   40.9577 H   0  0  0  0  0  0  0  0  0  0  0  0
   53.7983   11.4276   40.7698 H   0  0  0  0  0  0  0  0  0  0  0  0
   55.9477   12.0829   40.4173 H   0  0  0  0  0  0  0  0  0  0  0  0
   55.9846   13.8210   41.8819 H   0  0  0  0  0  0  0  0  0  0  0  0
   54.7635   12.8516   43.5558 H   0  0  0  0  0  0  0  0  0  0  0  0
   55.6587   10.7175   43.3903 H   0  0  0  0  0  0  0  0  0  0  0  0
   57.8596   11.3520   42.9985 H   0  0  0  0  0  0  0  0  0  0  0  0
   57.8021   12.0892   45.7607 H   0  0  0  0  0  0  0  0  0  0  0  0
   57.9026   13.1263   44.5073 H   0  0  0  0  0  0  0  0  0  0  0  0
  1  2  1  0  0  0  0
  1 82  1  0  0  0  0
  1 83  1  0  0  0  0
  2  3  1  0  0  0  0
  2 84  1  0  0  0  0
  3  4  1  0  0  0  0
  3 85  1  0  0  0  0
  3 86  1  0  0  0  0
  4  5  1  0  0  0  0
  4 87  1  0  0  0  0
  4 88  1  0  0  0  0
  5  6  1  0  0  0  0
  5 89  1  0  0  0  0
  5 90  1  0  0  0  0
  6  7  1  0  0  0  0
  6 91  1  0  0  0  0
  7  8  1  0  0  0  0
  7 92  1  0  0  0  0
  8  9  1  0  0  0  0
  8 93  1  0  0  0  0
  9 10  1  0  0  0  0
  9 94  1  0  0  0  0
 10 11  1  0  0  0  0
 10 95  1  0  0  0  0
 11 12  1  0  0  0  0
 11 96  1  0  0  0  0
 12 13  1  0  0  0  0
 12 97  1  0  0  0  0
 13 14  1  0  0  0  0
 13 98  1  0  0  0  0
 14 15  1  0  0  0  0
 14 99  1  0  0  0  0
 15 16  1  0  0  0  0
 15100  1  0  0  0  0
 16 17  1  0  0  0  0
 16101  1  0  0  0  0
 17 18  1  0  0  0  0
 17102  1  0  0  0  0
 18 19  1  0  0  0  0
 18103  1  0  0  0  0
 19 20  1  0  0  0  0
 19104  1  0  0  0  0
 20 21  1  0  0  0  0
 20105  1  0  0  0  0
 21 22  1  0  0  0  0
 21106  1  0  0  0  0
 22 23  1  0  0  0  0
 22107  1  0  0  0  0
 23 24  1  0  0  0  0
 23108  1  0  0  0  0
 24 25  1  0  0  0  0
 24109  1  0  0  0  0
 25 26  1  0  0  0  0
 25110  1  0  0  0  0
 26 27  1  0  0  0  0
 26111  1  0  0  0  0
 27 28  1  0  0  0  0
 27112  1  0  0  0  0
 28 29  1  0  0  0  0
 28113  1  0  0  0  0
 29 30  1  0  0  0  0
 29114  1  0  0  0  0
 30 31  1  0  0  0  0
 30115  1  0  0  0  0
 31 32  1  0  0  0  0
 31116  1  0  0  0  0
 32 33  1  0  0  0  0
 32117  1  0  0  0  0
 33 34  1  0  0  0  0
 33118  1  0  0  0  0
 34 35  1  0  0  0  0
 34119  1  0  0  0  0
 35 36  1  0  0  0  0
 35120  1  0  0  0  0
 36 37  1  0  0  0  0
 36121  1  0  0  0  0
 37 38  1  0  0  0  0
 37122  1  0  0  0  0
 38 39  1  0  0  0  0
 38123  1  0  0  0  0
 39 40  1  0  0  0  0
 39124  1  0  0  0  0
 40 41  1  0  0  0  0
 40125  1  0  0  0  0
 41 42  1  0  0  0  0
 41126  1  0  0  0  0
 42 43  1  0  0  0  0
 42127  1  0  0  0  0
 43 44  1  0  0  0  0
 43128  1  0  0  0  0
 44 45  1  0  0  0  0
 44129  1  0  0  0  0
 45 46  1  0  0  0  0
 45130  1  0  0  0  0
 46 47  1  0  0  0  0
 46131  1  0  0  0  0
 47 48  1  0  0  0  0
 47132  1  0  0  0  0
 48 49  1  0  0  0  0
 48133  1  0  0  0  0
 49 50  1  0  0  0  0
 49134  1  0  0  0  0
 50 51  1  0  0  0  0
 50135  1  0  0  0  0
 51 52  1  0  0  0  0
 51136  1  0  0  0  0
 52 53  1  0  0  0  0
 52137  1  0  0  0  0
 53 54  1  0  0  0  0
 53138  1  0  0  0  0
 54 55  1  0  0  0  0
 54139  1  0  0  0  0
 55 56  1  0  0  0  0
 55140  1  0  0  0  0
 56 57  1  0  0  0  0
 56141  1  0  0  0  0
 57 58  1  0  0  0  0
 57142  1  0  0  0  0
 58 59  1  0  0  0  0
 58143  1  0  0  0  0
 59 60  1  0  0  0  0
 59144  1  0  0  0  0
 60 61  1  0  0  0  0
 60145  1  0  0  0  0
 61 62  1  0  0  0  0
 61146  1  0  0  0  0
 62 63  1  0  0  0  0
 62147  1  0  0  0  0
 63 64  1  0  0  0  0
 63148  1  0  0  0  0
 64 65  1  0  0  0  0
 64149  1  0  0  0  0
 65 66  1  0  0  0  0
 65150  1  0  0  0  0
 66 67  1  0  0  0  0
 66151  1  0  0  0  0
 67 68  1  0  0  0  0
 67152  1  0  0  0  0
 68 69  1  0  0  0  0
 68153  1  0  0  0  0
 69 70  1  0  0  0  0
 69154  1  0  0  0  0
 70 71  1  0  0  0  0
 70155  1  0  0  0  0
 71 72  1  0  0  0  0
 71156  1  0  0  0  0
 72 73  1  0  0  0  0
 72157  1  0  0  0  0
 73 74  1  0  0  0  0
 73158  1  0  0  0  0
 74 75  1  0  0  0  0
 74159  1  0  0  0  0
 75 76  1  0  0  0  0
 75160  1  0  0  0  0
 76 77  1  0  0  0  0
 76161  1  0  0  0  0
 77 78  1  0  0  0  0
 77162  1  0  0  0  0
 78 79  1  0  0  0  0
 78163  1  0  0  0  0
 79 80  1  0  0  0  0
 79164  1  0  0  0  0
 80 81  1  0  0  0  0
 80165  1  0  0  0  0
 81166  1  0  0  0  0
 81167  1  0  0  0  0
M  END
$$$$
