
 OpenBabel04232216443D

 49 50  0  0  0  0  0  0  0  0999 V2000
    2.3374   -0.4171    0.0937 C   0  0  0  0  0  0  0  0  0  0  0  0
    3.8187   -0.5494   -0.3090 C   0  0  0  0  0  0  0  0  0  0  0  0
    4.2204   -0.2189   -1.7033 C   0  0  0  0  0  0  0  0  0  0  0  0
    3.1477    0.0212   -2.7665 C   0  0  0  0  0  0  0  0  0  0  0  0
    5.5081    0.1616   -1.9819 C   0  0  0  0  0  0  0  0  0  0  0  0
    6.2075    1.0842   -1.0147 C   0  0  0  0  0  0  0  0  0  0  0  0
    5.4824    2.2072   -0.3134 C   0  0  0  0  0  0  0  0  0  0  0  0
    6.1756    0.1706   -3.2799 C   0  0  0  0  0  0  0  0  0  0  0  0
    7.5124    0.1295   -3.5867 C   0  0  0  0  0  0  0  0  0  0  0  0
    7.7374    0.8061   -4.9044 C   0  0  0  0  0  0  0  0  0  0  0  0
    8.3698    1.9866   -4.9381 C   0  0  0  0  0  0  0  0  0  0  0  0
    9.0335    2.5065   -6.1269 C   0  0  0  0  0  0  0  0  0  0  0  0
   10.2091    3.1414   -5.9266 C   0  0  0  0  0  0  0  0  0  0  0  0
   11.3797    2.3381   -6.3013 C   0  0  0  0  0  0  0  0  0  0  0  0
   11.8568    1.5675   -5.2881 C   0  0  0  0  0  0  0  0  0  0  0  0
   11.2330    0.1811   -5.3874 C   0  0  0  0  0  0  0  0  0  0  0  0
   10.3995   -0.4804   -4.6434 N   0  0  0  0  0  0  0  0  0  0  0  0
   10.0201   -0.2233   -3.3332 C   0  0  0  0  0  0  0  0  0  0  0  0
    8.7546   -0.2117   -2.7255 C   0  0  0  0  0  0  0  0  0  0  0  0
    8.8836   -0.3592   -1.2117 C   0  0  0  0  0  0  0  0  0  0  0  0
    8.3669   -0.7435   -0.0185 C   0  0  0  0  0  0  0  0  0  0  0  0
    7.2906   -1.3165    0.8147 C   0  0  0  0  0  0  0  0  0  0  0  0
    5.9600   -1.3880    1.0560 C   0  0  0  0  0  0  0  0  0  0  0  0
    4.6031   -0.9999    0.7046 C   0  0  0  0  0  0  0  0  0  0  0  0
    1.6586   -0.0106   -0.6543 H   0  0  0  0  0  0  0  0  0  0  0  0
    2.2361    0.2568    0.9553 H   0  0  0  0  0  0  0  0  0  0  0  0
    1.9246   -1.3934    0.3884 H   0  0  0  0  0  0  0  0  0  0  0  0
    2.1293   -0.2317   -2.4779 H   0  0  0  0  0  0  0  0  0  0  0  0
    3.3538   -0.4948   -3.7092 H   0  0  0  0  0  0  0  0  0  0  0  0
    3.1238    1.0954   -2.9643 H   0  0  0  0  0  0  0  0  0  0  0  0
    7.0892    1.5380   -1.4666 H   0  0  0  0  0  0  0  0  0  0  0  0
    6.5430    0.4914   -0.2114 H   0  0  0  0  0  0  0  0  0  0  0  0
    5.2708    3.0215   -0.9991 H   0  0  0  0  0  0  0  0  0  0  0  0
    6.1584    2.5591    0.4703 H   0  0  0  0  0  0  0  0  0  0  0  0
    4.5639    1.8923    0.1817 H   0  0  0  0  0  0  0  0  0  0  0  0
    5.4796    0.3511   -4.1065 H   0  0  0  0  0  0  0  0  0  0  0  0
    7.4604    0.2473   -5.7979 H   0  0  0  0  0  0  0  0  0  0  0  0
    8.6764    2.4290   -3.9894 H   0  0  0  0  0  0  0  0  0  0  0  0
    8.9064    1.8769   -7.0104 H   0  0  0  0  0  0  0  0  0  0  0  0
   10.3667    3.6981   -4.9949 H   0  0  0  0  0  0  0  0  0  0  0  0
   11.2834    1.9250   -7.3129 H   0  0  0  0  0  0  0  0  0  0  0  0
   11.9276    1.9686   -4.2834 H   0  0  0  0  0  0  0  0  0  0  0  0
   11.4960   -0.2973   -6.3368 H   0  0  0  0  0  0  0  0  0  0  0  0
   10.8962   -0.2831   -2.6806 H   0  0  0  0  0  0  0  0  0  0  0  0
    9.8827    0.0442   -0.9825 H   0  0  0  0  0  0  0  0  0  0  0  0
    9.1357   -0.5285    0.7449 H   0  0  0  0  0  0  0  0  0  0  0  0
    7.8219   -1.7124    1.7033 H   0  0  0  0  0  0  0  0  0  0  0  0
    5.8318   -1.8334    2.0795 H   0  0  0  0  0  0  0  0  0  0  0  0
    4.0025   -1.1620    1.6140 H   0  0  0  0  0  0  0  0  0  0  0  0
  1  2  1  0  0  0  0
  1 25  1  0  0  0  0
  1 26  1  0  0  0  0
  1 27  1  0  0  0  0
  2  3  1  0  0  0  0
  2 24  2  3  0  0  0
  3  4  1  0  0  0  0
  3  5  2  3  0  0  0
  4 28  1  0  0  0  0
  4 29  1  0  0  0  0
  4 30  1  0  0  0  0
  5  6  1  0  0  0  0
  5  8  1  0  0  0  0
  6  7  1  0  0  0  0
  6 31  1  0  0  0  0
  6 32  1  0  0  0  0
  7 33  1  0  0  0  0
  7 34  1  0  0  0  0
  7 35  1  0  0  0  0
  8  9  2  3  0  0  0
  8 36  1  0  0  0  0
  9 10  1  0  0  0  0
  9 19  1  0  0  0  0
 10 11  2  3  0  0  0
 10 37  1  0  0  0  0
 11 12  1  0  0  0  0
 11 38  1  0  0  0  0
 12 13  2  3  0  0  0
 12 39  1  0  0  0  0
 13 14  1  0  0  0  0
 13 40  1  0  0  0  0
 14 15  2  3  0  0  0
 14 41  1  0  0  0  0
 15 16  1  0  0  0  0
 15 42  1  0  0  0  0
 16 17  2  3  0  0  0
 16 43  1  0  0  0  0
 17 18  1  0  0  0  0
 18 19  2  3  0  0  0
 18 44  1  0  0  0  0
 19 20  1  0  0  0  0
 20 21  2  3  0  0  0
 20 45  1  0  0  0  0
 21 22  1  0  0  0  0
 21 46  1  0  0  0  0
 22 23  2  3  0  0  0
 22 47  1  0  0  0  0
 23 24  1  0  0  0  0
 23 48  1  0  0  0  0
 24 49  1  0  0  0  0
M  END
$$$$
