
 OpenBabel04232216483D

 61 62  0  0  1  0  0  0  0  0999 V2000
    2.5212   -0.0683   -0.0382 C   0  0  0  0  0  0  0  0  0  0  0  0
    1.0204   -0.0394   -0.0476 C   0  0  0  0  0  0  0  0  0  0  0  0
    0.2653   -1.2191   -0.0638 C   0  0  0  0  0  0  0  0  0  0  0  0
   -1.1337   -1.1721   -0.0436 C   0  0  0  0  0  0  0  0  0  0  0  0
   -1.8038    0.0572   -0.0094 C   0  0  0  0  0  0  0  0  0  0  0  0
   -3.3383    0.1194    0.0453 C   0  0  3  0  0  0  0  0  0  0  0  0
   -3.7349    0.9030    1.3374 C   0  0  0  0  0  0  0  0  0  0  0  0
   -5.2064    1.2291    1.5989 C   0  0  0  0  0  0  0  0  0  0  0  0
   -5.6117    2.6298    1.1110 C   0  0  0  0  0  0  0  0  0  0  0  0
   -7.1177    2.7408    0.8113 C   0  0  0  0  0  0  0  0  0  0  0  0
   -7.4684    3.3222   -0.5644 C   0  0  0  0  0  0  0  0  0  0  0  0
   -7.2032    2.3931   -1.7420 C   0  0  0  0  0  0  0  0  0  0  0  0
   -8.0501    2.1475   -2.5939 O   0  0  0  0  0  0  0  0  0  0  0  0
   -5.8014    1.9416   -1.9077 C   0  0  0  0  0  0  0  0  0  0  0  0
   -5.3450    0.7217   -1.5617 C   0  0  0  0  0  0  0  0  0  0  0  0
   -6.2012   -0.4932   -1.2581 C   0  0  0  0  0  0  0  0  0  0  0  0
   -7.1425   -1.0040   -2.3485 C   0  0  0  0  0  0  0  0  0  0  0  0
   -6.4539   -1.4237   -3.6452 C   0  0  0  0  0  0  0  0  0  0  0  0
   -7.5113   -1.9123   -4.6337 C   0  0  0  0  0  0  0  0  0  0  0  0
   -6.9037   -2.3464   -5.9653 C   0  0  0  0  0  0  0  0  0  0  0  0
   -8.0007   -2.8099   -6.9222 C   0  0  0  0  0  0  0  0  0  0  0  0
   -7.4259   -3.2444   -8.2580 C   0  0  0  0  0  0  0  0  0  0  0  0
   -3.8445    0.5853   -1.3523 C   0  0  0  0  0  0  0  0  0  0  0  0
   -1.0369    1.2358   -0.0279 C   0  0  0  0  0  0  0  0  0  0  0  0
    0.3564    1.1882   -0.0363 C   0  0  0  0  0  0  0  0  0  0  0  0
    2.8994   -1.0946   -0.0673 H   0  0  0  0  0  0  0  0  0  0  0  0
    2.8980    0.4019    0.8756 H   0  0  0  0  0  0  0  0  0  0  0  0
    2.9156    0.4609   -0.9096 H   0  0  0  0  0  0  0  0  0  0  0  0
    0.7620   -2.1870   -0.0860 H   0  0  0  0  0  0  0  0  0  0  0  0
   -1.6921   -2.1055   -0.0487 H   0  0  0  0  0  0  0  0  0  0  0  0
   -3.7025   -0.9067    0.1921 H   0  0  0  0  0  0  0  0  0  0  0  0
   -3.1572    1.8262    1.4467 H   0  0  0  0  0  0  0  0  0  0  0  0
   -3.4092    0.2682    2.1771 H   0  0  0  0  0  0  0  0  0  0  0  0
   -5.3762    1.2105    2.6837 H   0  0  0  0  0  0  0  0  0  0  0  0
   -5.8407    0.4358    1.2100 H   0  0  0  0  0  0  0  0  0  0  0  0
   -5.0008    2.9488    0.2640 H   0  0  0  0  0  0  0  0  0  0  0  0
   -5.3620    3.3454    1.9063 H   0  0  0  0  0  0  0  0  0  0  0  0
   -7.5560    3.4037    1.5683 H   0  0  0  0  0  0  0  0  0  0  0  0
   -7.6164    1.7715    0.9273 H   0  0  0  0  0  0  0  0  0  0  0  0
   -6.9476    4.2704   -0.7397 H   0  0  0  0  0  0  0  0  0  0  0  0
   -8.5434    3.5423   -0.5743 H   0  0  0  0  0  0  0  0  0  0  0  0
   -5.1184    2.7622   -2.1100 H   0  0  0  0  0  0  0  0  0  0  0  0
   -6.8296   -0.2783   -0.3870 H   0  0  0  0  0  0  0  0  0  0  0  0
   -5.5559   -1.3313   -0.9681 H   0  0  0  0  0  0  0  0  0  0  0  0
   -7.9133   -0.2614   -2.5654 H   0  0  0  0  0  0  0  0  0  0  0  0
   -7.6784   -1.8720   -1.9412 H   0  0  0  0  0  0  0  0  0  0  0  0
   -5.7307   -2.2247   -3.4404 H   0  0  0  0  0  0  0  0  0  0  0  0
   -5.8999   -0.5836   -4.0759 H   0  0  0  0  0  0  0  0  0  0  0  0
   -8.2384   -1.1102   -4.8118 H   0  0  0  0  0  0  0  0  0  0  0  0
   -8.0632   -2.7529   -4.1945 H   0  0  0  0  0  0  0  0  0  0  0  0
   -6.1875   -3.1597   -5.7980 H   0  0  0  0  0  0  0  0  0  0  0  0
   -6.3522   -1.5099   -6.4096 H   0  0  0  0  0  0  0  0  0  0  0  0
   -8.7184   -1.9967   -7.0872 H   0  0  0  0  0  0  0  0  0  0  0  0
   -8.5566   -3.6443   -6.4788 H   0  0  0  0  0  0  0  0  0  0  0  0
   -6.8895   -2.4217   -8.7410 H   0  0  0  0  0  0  0  0  0  0  0  0
   -8.2288   -3.5650   -8.9278 H   0  0  0  0  0  0  0  0  0  0  0  0
   -6.7346   -4.0829   -8.1322 H   0  0  0  0  0  0  0  0  0  0  0  0
   -3.3548    1.5395   -1.5925 H   0  0  0  0  0  0  0  0  0  0  0  0
   -3.4755   -0.1181   -2.1127 H   0  0  0  0  0  0  0  0  0  0  0  0
   -1.5189    2.2104   -0.0228 H   0  0  0  0  0  0  0  0  0  0  0  0
    0.9208    2.1181   -0.0262 H   0  0  0  0  0  0  0  0  0  0  0  0
  1  2  1  0  0  0  0
  1 26  1  0  0  0  0
  1 27  1  0  0  0  0
  1 28  1  0  0  0  0
  2  3  1  0  0  0  0
  2 25  2  0  0  0  0
  3  4  2  0  0  0  0
  3 29  1  0  0  0  0
  4  5  1  0  0  0  0
  4 30  1  0  0  0  0
  5  6  1  0  0  0  0
  5 24  2  0  0  0  0
  6  7  1  0  0  0  0
  6 23  1  0  0  0  0
  6 31  1  0  0  0  0
  7  8  1  0  0  0  0
  7 32  1  0  0  0  0
  7 33  1  0  0  0  0
  8  9  1  0  0  0  0
  8 34  1  0  0  0  0
  8 35  1  0  0  0  0
  9 10  1  0  0  0  0
  9 36  1  0  0  0  0
  9 37  1  0  0  0  0
 10 11  1  0  0  0  0
 10 38  1  0  0  0  0
 10 39  1  0  0  0  0
 11 12  1  0  0  0  0
 11 40  1  0  0  0  0
 11 41  1  0  0  0  0
 12 13  2  0  0  0  0
 12 14  1  0  0  0  0
 14 15  2  3  0  0  0
 14 42  1  0  0  0  0
 15 16  1  0  0  0  0
 15 23  1  0  0  0  0
 16 17  1  0  0  0  0
 16 43  1  0  0  0  0
 16 44  1  0  0  0  0
 17 18  1  0  0  0  0
 17 45  1  0  0  0  0
 17 46  1  0  0  0  0
 18 19  1  0  0  0  0
 18 47  1  0  0  0  0
 18 48  1  0  0  0  0
 19 20  1  0  0  0  0
 19 49  1  0  0  0  0
 19 50  1  0  0  0  0
 20 21  1  0  0  0  0
 20 51  1  0  0  0  0
 20 52  1  0  0  0  0
 21 22  1  0  0  0  0
 21 53  1  0  0  0  0
 21 54  1  0  0  0  0
 22 55  1  0  0  0  0
 22 56  1  0  0  0  0
 22 57  1  0  0  0  0
 23 58  1  0  0  0  0
 23 59  1  0  0  0  0
 24 25  1  0  0  0  0
 24 60  1  0  0  0  0
 25 61  1  0  0  0  0
M  END
$$$$
