
 OpenBabel04232216403D

200199  0  0  0  0  0  0  0  0999 V2000
    1.4430    0.8251    0.5879 C   0  0  0  0  0  0  0  0  0  0  0  0
    2.2919   -0.0360    0.0227 C   0  0  0  0  0  0  0  0  0  0  0  0
    3.0577    0.3084   -1.2096 C   0  0  0  0  0  0  0  0  0  0  0  0
    4.5502    0.2417   -0.9566 C   0  0  0  0  0  0  0  0  0  0  0  0
    5.3175    0.5958   -2.2153 C   0  0  0  0  0  0  0  0  0  0  0  0
    6.8079    0.5267   -1.9580 C   0  0  0  0  0  0  0  0  0  0  0  0
    7.5732    0.8822   -3.2143 C   0  0  0  0  0  0  0  0  0  0  0  0
    9.0628    0.8111   -2.9570 C   0  0  0  0  0  0  0  0  0  0  0  0
    9.8278    1.1666   -4.2133 C   0  0  0  0  0  0  0  0  0  0  0  0
   11.3172    1.0935   -3.9565 C   0  0  0  0  0  0  0  0  0  0  0  0
   12.0822    1.4471   -5.2133 C   0  0  0  0  0  0  0  0  0  0  0  0
   13.5716    1.3759   -4.9559 C   0  0  0  0  0  0  0  0  0  0  0  0
   14.3366    1.7314   -6.2122 C   0  0  0  0  0  0  0  0  0  0  0  0
   15.8260    1.6583   -5.9554 C   0  0  0  0  0  0  0  0  0  0  0  0
   16.5910    2.0138   -7.2116 C   0  0  0  0  0  0  0  0  0  0  0  0
   18.0804    1.9388   -6.9554 C   0  0  0  0  0  0  0  0  0  0  0  0
   18.8454    2.2962   -8.2111 C   0  0  0  0  0  0  0  0  0  0  0  0
   20.3348    2.2193   -7.9554 C   0  0  0  0  0  0  0  0  0  0  0  0
   21.0998    2.5748   -9.2117 C   0  0  0  0  0  0  0  0  0  0  0  0
   22.5892    2.4998   -8.9554 C   0  0  0  0  0  0  0  0  0  0  0  0
   23.3542    2.8534  -10.2122 C   0  0  0  0  0  0  0  0  0  0  0  0
   24.8437    2.7803   -9.9554 C   0  0  0  0  0  0  0  0  0  0  0  0
   25.6086    3.1358  -11.2117 C   0  0  0  0  0  0  0  0  0  0  0  0
   27.0981    3.0646  -10.9544 C   0  0  0  0  0  0  0  0  0  0  0  0
   27.8630    3.4201  -12.2106 C   0  0  0  0  0  0  0  0  0  0  0  0
   29.3525    3.3470  -11.9538 C   0  0  0  0  0  0  0  0  0  0  0  0
   30.1174    3.7025  -13.2101 C   0  0  0  0  0  0  0  0  0  0  0  0
   31.6069    3.6295  -12.9533 C   0  0  0  0  0  0  0  0  0  0  0  0
   32.3718    3.9850  -14.2096 C   0  0  0  0  0  0  0  0  0  0  0  0
   33.8613    3.9119  -13.9528 C   0  0  0  0  0  0  0  0  0  0  0  0
   34.6262    4.2674  -15.2090 C   0  0  0  0  0  0  0  0  0  0  0  0
   36.1157    4.1943  -14.9522 C   0  0  0  0  0  0  0  0  0  0  0  0
   36.8807    4.5517  -16.2079 C   0  0  0  0  0  0  0  0  0  0  0  0
   38.3701    4.4786  -15.9512 C   0  0  0  0  0  0  0  0  0  0  0  0
   39.1352    4.8361  -17.2069 C   0  0  0  0  0  0  0  0  0  0  0  0
   40.6251    4.7630  -16.9502 C   0  0  0  0  0  0  0  0  0  0  0  0
   41.3918    5.1224  -18.2052 C   0  0  0  0  0  0  0  0  0  0  0  0
   42.8852    5.0475  -17.9496 C   0  0  0  0  0  0  0  0  0  0  0  0
   43.6480    5.4101  -19.2072 C   0  0  0  0  0  0  0  0  0  0  0  0
   45.0826    5.3399  -18.9466 N   0  0  0  0  0  0  0  0  0  0  0  0
   45.8268    5.6840  -20.1595 C   0  0  0  0  0  0  0  0  0  0  0  0
   47.2596    5.6165  -19.9090 N   0  0  0  0  0  0  0  0  0  0  0  0
   47.5995    4.2822  -19.5126 N   0  0  0  0  0  0  0  0  0  0  0  0
   48.9912    4.2033  -19.2578 N   0  0  0  0  0  0  0  0  0  0  0  0
   49.3553    5.1045  -18.2138 N   0  0  0  0  0  0  0  0  0  0  0  0
   50.7482    5.0349  -17.9533 N   0  0  0  0  0  0  0  0  0  0  0  0
   51.0998    5.9266  -16.9258 N   0  0  0  0  0  0  0  0  0  0  0  0
   50.3964    5.5983  -15.7376 N   0  0  0  0  0  0  0  0  0  0  0  0
   50.7387    6.4929  -14.7078 N   0  0  0  0  0  0  0  0  0  0  0  0
   50.0376    6.1615  -13.5241 N   0  0  0  0  0  0  0  0  0  0  0  0
   50.3860    7.0555  -12.4823 N   0  0  0  0  0  0  0  0  0  0  0  0
   49.6806    6.7253  -11.3094 N   0  0  0  0  0  0  0  0  0  0  0  0
   50.0287    7.6226  -10.2627 N   0  0  0  0  0  0  0  0  0  0  0  0
   49.3260    7.2969   -9.0682 N   0  0  0  0  0  0  0  0  0  0  0  0
   49.6834    8.1908   -8.0556 N   0  0  0  0  0  0  0  0  0  0  0  0
   48.9793    7.8536   -6.8798 N   0  0  0  0  0  0  0  0  0  0  0  0
   49.3239    8.7475   -5.8268 N   0  0  0  0  0  0  0  0  0  0  0  0
   48.6200    8.4160   -4.6436 N   0  0  0  0  0  0  0  0  0  0  0  0
   48.9725    9.3102   -3.6011 N   0  0  0  0  0  0  0  0  0  0  0  0
   48.2721    8.9797   -2.4181 N   0  0  0  0  0  0  0  0  0  0  0  0
   48.6267    9.8731   -1.3847 N   0  0  0  0  0  0  0  0  0  0  0  0
   47.9240    9.5413   -0.2033 N   0  0  0  0  0  0  0  0  0  0  0  0
   48.2740   10.4394    0.8431 N   0  0  0  0  0  0  0  0  0  0  0  0
   47.5694   10.0999    2.0186 N   0  0  0  0  0  0  0  0  0  0  0  0
   47.9166   10.9981    3.0827 N   0  0  0  0  0  0  0  0  0  0  0  0
   47.2141   10.6625    4.2558 N   0  0  0  0  0  0  0  0  0  0  0  0
   47.5693   11.5556    5.2881 N   0  0  0  0  0  0  0  0  0  0  0  0
   46.8679   11.2301    6.4789 N   0  0  0  0  0  0  0  0  0  0  0  0
   47.2194   12.1233    7.5127 N   0  0  0  0  0  0  0  0  0  0  0  0
   46.5161   11.7871    8.6909 N   0  0  0  0  0  0  0  0  0  0  0  0
   46.8671   12.6813    9.7276 N   0  0  0  0  0  0  0  0  0  0  0  0
   46.1630   12.3549   10.9224 N   0  0  0  0  0  0  0  0  0  0  0  0
   46.5167   13.2459   11.9490 N   0  0  0  0  0  0  0  0  0  0  0  0
   45.8131   12.9167   13.1374 N   0  0  0  0  0  0  0  0  0  0  0  0
   46.1620   13.8101   14.1727 N   0  0  0  0  0  0  0  0  0  0  0  0
   45.4579   13.4813   15.3642 N   0  0  0  0  0  0  0  0  0  0  0  0
   45.8086   14.3745   16.3955 N   0  0  0  0  0  0  0  0  0  0  0  0
   45.1042   14.0384   17.5796 N   0  0  0  0  0  0  0  0  0  0  0  0
   45.4529   14.9403   18.6254 N   0  0  0  0  0  0  0  0  0  0  0  0
   44.7499   14.6138   19.8263 N   0  0  0  0  0  0  0  0  0  0  0  0
    0.8928    0.5651    1.4817 H   0  0  0  0  0  0  0  0  0  0  0  0
    1.2913    1.8060    0.1557 H   0  0  0  0  0  0  0  0  0  0  0  0
    2.4217   -1.0093    0.4798 H   0  0  0  0  0  0  0  0  0  0  0  0
    2.7942    1.3210   -1.5363 H   0  0  0  0  0  0  0  0  0  0  0  0
    2.7955   -0.3877   -2.0119 H   0  0  0  0  0  0  0  0  0  0  0  0
    4.8254   -0.7684   -0.6359 H   0  0  0  0  0  0  0  0  0  0  0  0
    4.8219    0.9391   -0.1576 H   0  0  0  0  0  0  0  0  0  0  0  0
    5.0482    1.6064   -2.5387 H   0  0  0  0  0  0  0  0  0  0  0  0
    5.0516   -0.1008   -3.0169 H   0  0  0  0  0  0  0  0  0  0  0  0
    7.0790   -0.4841   -1.6367 H   0  0  0  0  0  0  0  0  0  0  0  0
    7.0751    1.2224   -1.1561 H   0  0  0  0  0  0  0  0  0  0  0  0
    7.3037    1.8936   -3.5349 H   0  0  0  0  0  0  0  0  0  0  0  0
    7.3054    0.1874   -4.0167 H   0  0  0  0  0  0  0  0  0  0  0  0
    9.3324   -0.2003   -2.6364 H   0  0  0  0  0  0  0  0  0  0  0  0
    9.3307    1.5058   -2.1546 H   0  0  0  0  0  0  0  0  0  0  0  0
    9.5592    2.1785   -4.5331 H   0  0  0  0  0  0  0  0  0  0  0  0
    9.5588    0.4727   -5.0160 H   0  0  0  0  0  0  0  0  0  0  0  0
   11.5855    0.0820   -3.6353 H   0  0  0  0  0  0  0  0  0  0  0  0
   11.5864    1.7884   -3.1547 H   0  0  0  0  0  0  0  0  0  0  0  0
   11.8128    2.4580   -5.5353 H   0  0  0  0  0  0  0  0  0  0  0  0
   11.8141    0.7512   -6.0147 H   0  0  0  0  0  0  0  0  0  0  0  0
   13.8412    0.3645   -4.6353 H   0  0  0  0  0  0  0  0  0  0  0  0
   13.8395    2.0707   -4.1536 H   0  0  0  0  0  0  0  0  0  0  0  0
   14.0680    2.7433   -6.5320 H   0  0  0  0  0  0  0  0  0  0  0  0
   14.0676    1.0375   -7.0150 H   0  0  0  0  0  0  0  0  0  0  0  0
   16.0946    0.6464   -5.6356 H   0  0  0  0  0  0  0  0  0  0  0  0
   16.0950    2.3522   -5.1526 H   0  0  0  0  0  0  0  0  0  0  0  0
   16.3235    3.0263   -7.5306 H   0  0  0  0  0  0  0  0  0  0  0  0
   16.3209    1.3208   -8.0148 H   0  0  0  0  0  0  0  0  0  0  0  0
   18.3481    0.9260   -6.6378 H   0  0  0  0  0  0  0  0  0  0  0  0
   18.3503    2.6307   -6.1512 H   0  0  0  0  0  0  0  0  0  0  0  0
   18.5788    3.3096   -8.5279 H   0  0  0  0  0  0  0  0  0  0  0  0
   18.5745    1.6052   -9.0157 H   0  0  0  0  0  0  0  0  0  0  0  0
   20.6012    1.2063   -7.6373 H   0  0  0  0  0  0  0  0  0  0  0  0
   20.6060    2.9114   -7.1518 H   0  0  0  0  0  0  0  0  0  0  0  0
   20.8324    3.5872   -9.5306 H   0  0  0  0  0  0  0  0  0  0  0  0
   20.8297    1.8818  -10.0149 H   0  0  0  0  0  0  0  0  0  0  0  0
   22.8565    1.4877   -8.6351 H   0  0  0  0  0  0  0  0  0  0  0  0
   22.8595    3.1938   -8.1532 H   0  0  0  0  0  0  0  0  0  0  0  0
   23.0859    3.8649  -10.5334 H   0  0  0  0  0  0  0  0  0  0  0  0
   23.0850    2.1584  -11.0140 H   0  0  0  0  0  0  0  0  0  0  0  0
   25.1122    1.7684   -9.6356 H   0  0  0  0  0  0  0  0  0  0  0  0
   25.1126    3.4742   -9.1527 H   0  0  0  0  0  0  0  0  0  0  0  0
   25.3390    4.1471  -11.5323 H   0  0  0  0  0  0  0  0  0  0  0  0
   25.3407    2.4410  -12.0141 H   0  0  0  0  0  0  0  0  0  0  0  0
   27.3677    2.0533  -10.6338 H   0  0  0  0  0  0  0  0  0  0  0  0
   27.3660    3.7594  -10.1520 H   0  0  0  0  0  0  0  0  0  0  0  0
   27.5945    4.4320  -12.5304 H   0  0  0  0  0  0  0  0  0  0  0  0
   27.5940    2.7262  -13.0134 H   0  0  0  0  0  0  0  0  0  0  0  0
   29.6210    2.3351  -11.6340 H   0  0  0  0  0  0  0  0  0  0  0  0
   29.6214    4.0409  -11.1510 H   0  0  0  0  0  0  0  0  0  0  0  0
   29.8489    4.7144  -13.5299 H   0  0  0  0  0  0  0  0  0  0  0  0
   29.8485    3.0086  -14.0129 H   0  0  0  0  0  0  0  0  0  0  0  0
   31.8754    2.6176  -12.6335 H   0  0  0  0  0  0  0  0  0  0  0  0
   31.8759    4.3234  -12.1505 H   0  0  0  0  0  0  0  0  0  0  0  0
   32.1033    4.9969  -14.5293 H   0  0  0  0  0  0  0  0  0  0  0  0
   32.1029    3.2911  -15.0123 H   0  0  0  0  0  0  0  0  0  0  0  0
   34.1298    2.9000  -13.6330 H   0  0  0  0  0  0  0  0  0  0  0  0
   34.1303    4.6058  -13.1500 H   0  0  0  0  0  0  0  0  0  0  0  0
   34.3577    5.2793  -15.5288 H   0  0  0  0  0  0  0  0  0  0  0  0
   34.3573    3.5735  -16.0118 H   0  0  0  0  0  0  0  0  0  0  0  0
   36.3844    3.1820  -14.6338 H   0  0  0  0  0  0  0  0  0  0  0  0
   36.3845    4.8871  -14.1485 H   0  0  0  0  0  0  0  0  0  0  0  0
   36.6119    5.5640  -16.5263 H   0  0  0  0  0  0  0  0  0  0  0  0
   36.6119    3.8589  -17.0117 H   0  0  0  0  0  0  0  0  0  0  0  0
   38.6389    3.4664  -15.6328 H   0  0  0  0  0  0  0  0  0  0  0  0
   38.6389    5.1715  -15.1474 H   0  0  0  0  0  0  0  0  0  0  0  0
   38.8663    5.8484  -17.5253 H   0  0  0  0  0  0  0  0  0  0  0  0
   38.8663    4.1433  -18.0106 H   0  0  0  0  0  0  0  0  0  0  0  0
   40.8935    3.7503  -16.6331 H   0  0  0  0  0  0  0  0  0  0  0  0
   40.8931    5.4548  -16.1453 H   0  0  0  0  0  0  0  0  0  0  0  0
   41.1222    6.1354  -18.5213 H   0  0  0  0  0  0  0  0  0  0  0  0
   41.1204    4.4316  -19.0102 H   0  0  0  0  0  0  0  0  0  0  0  0
   43.1476    4.0328  -17.6333 H   0  0  0  0  0  0  0  0  0  0  0  0
   43.1498    5.7379  -17.1422 H   0  0  0  0  0  0  0  0  0  0  0  0
   43.3769    6.4229  -19.5158 H   0  0  0  0  0  0  0  0  0  0  0  0
   43.3770    4.7150  -20.0076 H   0  0  0  0  0  0  0  0  0  0  0  0
   45.3218    4.3852  -18.6653 H   0  0  0  0  0  0  0  0  0  0  0  0
   45.5658    6.7072  -20.4652 H   0  0  0  0  0  0  0  0  0  0  0  0
   45.5559    5.0066  -20.9758 H   0  0  0  0  0  0  0  0  0  0  0  0
   47.5193    6.2397  -19.1367 H   0  0  0  0  0  0  0  0  0  0  0  0
   47.3677    3.6301  -20.2560 H   0  0  0  0  0  0  0  0  0  0  0  0
   49.4993    4.4440  -20.1083 H   0  0  0  0  0  0  0  0  0  0  0  0
   48.8092    4.8543  -17.3884 H   0  0  0  0  0  0  0  0  0  0  0  0
   51.2652    5.2822  -18.8010 H   0  0  0  0  0  0  0  0  0  0  0  0
   50.8517    6.8805  -17.1861 H   0  0  0  0  0  0  0  0  0  0  0  0
   50.6308    4.6493  -15.4502 H   0  0  0  0  0  0  0  0  0  0  0  0
   50.5110    7.4409  -14.9952 H   0  0  0  0  0  0  0  0  0  0  0  0
   50.2815    5.1994  -13.2753 H   0  0  0  0  0  0  0  0  0  0  0  0
   50.1401    8.0077  -12.7541 H   0  0  0  0  0  0  0  0  0  0  0  0
   49.9218    5.7850  -11.0062 H   0  0  0  0  0  0  0  0  0  0  0  0
   49.8091    8.5735  -10.5663 H   0  0  0  0  0  0  0  0  0  0  0  0
   49.5584    6.3453   -8.7788 H   0  0  0  0  0  0  0  0  0  0  0  0
   49.4439    9.1371   -8.3478 H   0  0  0  0  0  0  0  0  0  0  0  0
   49.2104    6.8849   -6.6338 H   0  0  0  0  0  0  0  0  0  0  0  0
   49.0948    9.7054   -6.1135 H   0  0  0  0  0  0  0  0  0  0  0  0
   48.8552    7.4752   -4.3203 H   0  0  0  0  0  0  0  0  0  0  0  0
   48.7301   10.2651   -3.8521 H   0  0  0  0  0  0  0  0  0  0  0  0
   48.5053    8.0232   -2.1505 H   0  0  0  0  0  0  0  0  0  0  0  0
   48.3824   10.8324   -1.6366 H   0  0  0  0  0  0  0  0  0  0  0  0
   48.1500    8.5945    0.0886 H   0  0  0  0  0  0  0  0  0  0  0  0
   48.0565   11.3864    0.5284 H   0  0  0  0  0  0  0  0  0  0  0  0
   47.8054    9.1328    2.2632 H   0  0  0  0  0  0  0  0  0  0  0  0
   47.6943   11.9504    2.7765 H   0  0  0  0  0  0  0  0  0  0  0  0
   47.4501    9.7018    4.5287 H   0  0  0  0  0  0  0  0  0  0  0  0
   47.3332   12.5154    5.0334 H   0  0  0  0  0  0  0  0  0  0  0  0
   47.1034   10.2886    6.7853 H   0  0  0  0  0  0  0  0  0  0  0  0
   46.9829   13.0703    7.2281 H   0  0  0  0  0  0  0  0  0  0  0  0
   46.7538   10.8215    8.9280 H   0  0  0  0  0  0  0  0  0  0  0  0
   46.6292   13.6409    9.4557 H   0  0  0  0  0  0  0  0  0  0  0  0
   46.4017   11.4095   11.2182 H   0  0  0  0  0  0  0  0  0  0  0  0
   46.2674   14.1948   11.6775 H   0  0  0  0  0  0  0  0  0  0  0  0
   46.0508   11.9722   13.4289 H   0  0  0  0  0  0  0  0  0  0  0  0
   45.9156   14.7592   13.8995 H   0  0  0  0  0  0  0  0  0  0  0  0
   45.7016   12.5329   15.6325 H   0  0  0  0  0  0  0  0  0  0  0  0
   45.5613   15.3186   16.1070 H   0  0  0  0  0  0  0  0  0  0  0  0
   45.3592   13.0843   17.8294 H   0  0  0  0  0  0  0  0  0  0  0  0
   45.2273   15.8905   18.3177 H   0  0  0  0  0  0  0  0  0  0  0  0
   44.9808   13.6469   20.0608 H   0  0  0  0  0  0  0  0  0  0  0  0
   43.7476   14.6382   19.6309 H   0  0  0  0  0  0  0  0  0  0  0  0
  1  2  2  0  0  0  0
  1 81  1  0  0  0  0
  1 82  1  0  0  0  0
  2  3  1  0  0  0  0
  2 83  1  0  0  0  0
  3  4  1  0  0  0  0
  3 84  1  0  0  0  0
  3 85  1  0  0  0  0
  4  5  1  0  0  0  0
  4 86  1  0  0  0  0
  4 87  1  0  0  0  0
  5  6  1  0  0  0  0
  5 88  1  0  0  0  0
  5 89  1  0  0  0  0
  6  7  1  0  0  0  0
  6 90  1  0  0  0  0
  6 91  1  0  0  0  0
  7  8  1  0  0  0  0
  7 92  1  0  0  0  0
  7 93  1  0  0  0  0
  8  9  1  0  0  0  0
  8 94  1  0  0  0  0
  8 95  1  0  0  0  0
  9 10  1  0  0  0  0
  9 96  1  0  0  0  0
  9 97  1  0  0  0  0
 10 11  1  0  0  0  0
 10 98  1  0  0  0  0
 10 99  1  0  0  0  0
 11 12  1  0  0  0  0
 11100  1  0  0  0  0
 11101  1  0  0  0  0
 12 13  1  0  0  0  0
 12102  1  0  0  0  0
 12103  1  0  0  0  0
 13 14  1  0  0  0  0
 13104  1  0  0  0  0
 13105  1  0  0  0  0
 14 15  1  0  0  0  0
 14106  1  0  0  0  0
 14107  1  0  0  0  0
 15 16  1  0  0  0  0
 15108  1  0  0  0  0
 15109  1  0  0  0  0
 16 17  1  0  0  0  0
 16110  1  0  0  0  0
 16111  1  0  0  0  0
 17 18  1  0  0  0  0
 17112  1  0  0  0  0
 17113  1  0  0  0  0
 18 19  1  0  0  0  0
 18114  1  0  0  0  0
 18115  1  0  0  0  0
 19 20  1  0  0  0  0
 19116  1  0  0  0  0
 19117  1  0  0  0  0
 20 21  1  0  0  0  0
 20118  1  0  0  0  0
 20119  1  0  0  0  0
 21 22  1  0  0  0  0
 21120  1  0  0  0  0
 21121  1  0  0  0  0
 22 23  1  0  0  0  0
 22122  1  0  0  0  0
 22123  1  0  0  0  0
 23 24  1  0  0  0  0
 23124  1  0  0  0  0
 23125  1  0  0  0  0
 24 25  1  0  0  0  0
 24126  1  0  0  0  0
 24127  1  0  0  0  0
 25 26  1  0  0  0  0
 25128  1  0  0  0  0
 25129  1  0  0  0  0
 26 27  1  0  0  0  0
 26130  1  0  0  0  0
 26131  1  0  0  0  0
 27 28  1  0  0  0  0
 27132  1  0  0  0  0
 27133  1  0  0  0  0
 28 29  1  0  0  0  0
 28134  1  0  0  0  0
 28135  1  0  0  0  0
 29 30  1  0  0  0  0
 29136  1  0  0  0  0
 29137  1  0  0  0  0
 30 31  1  0  0  0  0
 30138  1  0  0  0  0
 30139  1  0  0  0  0
 31 32  1  0  0  0  0
 31140  1  0  0  0  0
 31141  1  0  0  0  0
 32 33  1  0  0  0  0
 32142  1  0  0  0  0
 32143  1  0  0  0  0
 33 34  1  0  0  0  0
 33144  1  0  0  0  0
 33145  1  0  0  0  0
 34 35  1  0  0  0  0
 34146  1  0  0  0  0
 34147  1  0  0  0  0
 35 36  1  0  0  0  0
 35148  1  0  0  0  0
 35149  1  0  0  0  0
 36 37  1  0  0  0  0
 36150  1  0  0  0  0
 36151  1  0  0  0  0
 37 38  1  0  0  0  0
 37152  1  0  0  0  0
 37153  1  0  0  0  0
 38 39  1  0  0  0  0
 38154  1  0  0  0  0
 38155  1  0  0  0  0
 39 40  1  0  0  0  0
 39156  1  0  0  0  0
 39157  1  0  0  0  0
 40 41  1  0  0  0  0
 40158  1  0  0  0  0
 41 42  1  0  0  0  0
 41159  1  0  0  0  0
 41160  1  0  0  0  0
 42 43  1  0  0  0  0
 42161  1  0  0  0  0
 43 44  1  0  0  0  0
 43162  1  0  0  0  0
 44 45  1  0  0  0  0
 44163  1  0  0  0  0
 45 46  1  0  0  0  0
 45164  1  0  0  0  0
 46 47  1  0  0  0  0
 46165  1  0  0  0  0
 47 48  1  0  0  0  0
 47166  1  0  0  0  0
 48 49  1  0  0  0  0
 48167  1  0  0  0  0
 49 50  1  0  0  0  0
 49168  1  0  0  0  0
 50 51  1  0  0  0  0
 50169  1  0  0  0  0
 51 52  1  0  0  0  0
 51170  1  0  0  0  0
 52 53  1  0  0  0  0
 52171  1  0  0  0  0
 53 54  1  0  0  0  0
 53172  1  0  0  0  0
 54 55  1  0  0  0  0
 54173  1  0  0  0  0
 55 56  1  0  0  0  0
 55174  1  0  0  0  0
 56 57  1  0  0  0  0
 56175  1  0  0  0  0
 57 58  1  0  0  0  0
 57176  1  0  0  0  0
 58 59  1  0  0  0  0
 58177  1  0  0  0  0
 59 60  1  0  0  0  0
 59178  1  0  0  0  0
 60 61  1  0  0  0  0
 60179  1  0  0  0  0
 61 62  1  0  0  0  0
 61180  1  0  0  0  0
 62 63  1  0  0  0  0
 62181  1  0  0  0  0
 63 64  1  0  0  0  0
 63182  1  0  0  0  0
 64 65  1  0  0  0  0
 64183  1  0  0  0  0
 65 66  1  0  0  0  0
 65184  1  0  0  0  0
 66 67  1  0  0  0  0
 66185  1  0  0  0  0
 67 68  1  0  0  0  0
 67186  1  0  0  0  0
 68 69  1  0  0  0  0
 68187  1  0  0  0  0
 69 70  1  0  0  0  0
 69188  1  0  0  0  0
 70 71  1  0  0  0  0
 70189  1  0  0  0  0
 71 72  1  0  0  0  0
 71190  1  0  0  0  0
 72 73  1  0  0  0  0
 72191  1  0  0  0  0
 73 74  1  0  0  0  0
 73192  1  0  0  0  0
 74 75  1  0  0  0  0
 74193  1  0  0  0  0
 75 76  1  0  0  0  0
 75194  1  0  0  0  0
 76 77  1  0  0  0  0
 76195  1  0  0  0  0
 77 78  1  0  0  0  0
 77196  1  0  0  0  0
 78 79  1  0  0  0  0
 78197  1  0  0  0  0
 79 80  1  0  0  0  0
 79198  1  0  0  0  0
 80199  1  0  0  0  0
 80200  1  0  0  0  0
M  END
$$$$
