
 OpenBabel04232216573D

163162  0  0  0  0  0  0  0  0999 V2000
    0.9986    0.0669    0.1540 C   0  0  0  0  0  0  0  0  0  0  0  0
    2.7997    0.1749    0.0351 S   0  0  0  0  0  0  0  0  0  0  0  0
    3.3000   -1.1014    1.2397 C   0  0  0  0  0  0  0  0  0  0  0  0
    4.8266   -1.1431    1.2680 C   0  0  0  0  0  0  0  0  0  0  0  0
    5.3545   -2.1820    2.2477 C   0  0  0  0  0  0  0  0  0  0  0  0
    6.8779   -2.1971    2.2508 C   0  0  0  0  0  0  0  0  0  0  0  0
    7.4005   -3.2347    3.2320 C   0  0  0  0  0  0  0  0  0  0  0  0
    8.9185   -3.2467    3.2351 C   0  0  0  0  0  0  0  0  0  0  0  0
    9.4331   -4.2836    4.2158 C   0  0  0  0  0  0  0  0  0  0  0  0
   10.9502   -4.2940    4.2200 C   0  0  0  0  0  0  0  0  0  0  0  0
   11.4639   -5.3298    5.1969 C   0  0  0  0  0  0  0  0  0  0  0  0
   12.9773   -5.3416    5.1997 C   0  0  0  0  0  0  0  0  0  0  0  0
   13.4910   -6.3754    6.1775 C   0  0  0  0  0  0  0  0  0  0  0  0
   15.0032   -6.3861    6.1821 C   0  0  0  0  0  0  0  0  0  0  0  0
   15.5197   -7.4181    7.1580 C   0  0  0  0  0  0  0  0  0  0  0  0
   17.0298   -7.4327    7.1635 C   0  0  0  0  0  0  0  0  0  0  0  0
   17.5468   -8.4645    8.1367 C   0  0  0  0  0  0  0  0  0  0  0  0
   19.0563   -8.4780    8.1438 C   0  0  0  0  0  0  0  0  0  0  0  0
   19.5733   -9.5085    9.1184 C   0  0  0  0  0  0  0  0  0  0  0  0
   21.0830   -9.5233    9.1241 C   0  0  0  0  0  0  0  0  0  0  0  0
   21.6000  -10.5525   10.1002 C   0  0  0  0  0  0  0  0  0  0  0  0
   23.1096  -10.5659   10.1074 C   0  0  0  0  0  0  0  0  0  0  0  0
   23.6265  -11.5962   11.0819 C   0  0  0  0  0  0  0  0  0  0  0  0
   25.1359  -11.6082   11.0904 C   0  0  0  0  0  0  0  0  0  0  0  0
   25.6535  -12.6393   12.0656 C   0  0  0  0  0  0  0  0  0  0  0  0
   27.1646  -12.6495   12.0752 C   0  0  0  0  0  0  0  0  0  0  0  0
   27.6792  -13.6826   13.0524 C   0  0  0  0  0  0  0  0  0  0  0  0
   29.1905  -13.6915   13.0609 C   0  0  0  0  0  0  0  0  0  0  0  0
   29.7098  -14.7209   14.0345 C   0  0  0  0  0  0  0  0  0  0  0  0
   31.2186  -14.7335   14.0459 C   0  0  0  0  0  0  0  0  0  0  0  0
   31.7331  -15.7697   15.0266 C   0  0  0  0  0  0  0  0  0  0  0  0
   33.2572  -15.7731   15.0294 C   0  0  0  0  0  0  0  0  0  0  0  0
   33.7617  -16.8160   16.0158 C   0  0  0  0  0  0  0  0  0  0  0  0
   35.2970  -16.8238   16.0258 C   0  0  0  0  0  0  0  0  0  0  0  0
   35.8124  -17.8652   17.0105 C   0  0  0  0  0  0  0  0  0  0  0  0
   37.3330  -17.8869   17.0363 C   0  0  0  0  0  0  0  0  0  0  0  0
   37.8786  -18.9299   18.0207 C   0  0  0  0  0  0  0  0  0  0  0  0
   39.6858  -18.8333   17.9438 S   0  0  0  0  0  0  0  0  0  0  0  0
   40.2249  -20.0768   19.1347 C   0  0  0  0  0  0  0  0  0  0  0  0
   42.0781  -20.1292   19.1564 S   0  0  0  0  0  0  0  0  0  0  0  0
   42.5551  -18.3791   19.6387 C   0  0  0  0  0  0  0  0  0  0  0  0
   44.3926  -18.3606   19.6025 S   0  0  0  0  0  0  0  0  0  0  0  0
   44.8652  -16.6654   20.0652 C   0  0  0  0  0  0  0  0  0  0  0  0
   46.7385  -16.5435   20.0616 S   0  0  0  0  0  0  0  0  0  0  0  0
   47.1662  -16.9198   18.2788 C   0  0  0  0  0  0  0  0  0  0  0  0
   46.4179  -15.6724   17.1894 S   0  0  0  0  0  0  0  0  0  0  0  0
   46.9087  -16.1694   15.2660 S   0  0  0  0  0  0  0  0  0  0  0  0
   46.1116  -18.0264   14.8546 S   0  0  0  0  0  0  0  0  0  0  0  0
   44.0511  -17.9544   15.0422 S   0  0  0  0  0  0  0  0  0  0  0  0
   43.3103  -19.8751   14.6495 S   0  0  0  0  0  0  0  0  0  0  0  0
   41.2277  -19.8221   14.8688 S   0  0  0  0  0  0  0  0  0  0  0  0
   40.4409  -21.7322   14.4861 S   0  0  0  0  0  0  0  0  0  0  0  0
   38.3491  -21.6687   14.7376 S   0  0  0  0  0  0  0  0  0  0  0  0
   37.5641  -23.5821   14.3249 S   0  0  0  0  0  0  0  0  0  0  0  0
   35.4713  -23.5244   14.5767 S   0  0  0  0  0  0  0  0  0  0  0  0
   34.6862  -25.4384   14.1644 S   0  0  0  0  0  0  0  0  0  0  0  0
   32.5929  -25.3810   14.4162 S   0  0  0  0  0  0  0  0  0  0  0  0
   31.8076  -27.2949   14.0041 S   0  0  0  0  0  0  0  0  0  0  0  0
   29.7141  -27.2375   14.2559 S   0  0  0  0  0  0  0  0  0  0  0  0
   28.9287  -29.1513   13.8439 S   0  0  0  0  0  0  0  0  0  0  0  0
   26.8352  -29.0939   14.0957 S   0  0  0  0  0  0  0  0  0  0  0  0
   26.0498  -31.0077   13.6836 S   0  0  0  0  0  0  0  0  0  0  0  0
   23.9563  -30.9503   13.9355 S   0  0  0  0  0  0  0  0  0  0  0  0
   23.1709  -32.8642   13.5234 S   0  0  0  0  0  0  0  0  0  0  0  0
   21.0774  -32.8067   13.7753 S   0  0  0  0  0  0  0  0  0  0  0  0
   20.2920  -34.7206   13.3632 S   0  0  0  0  0  0  0  0  0  0  0  0
   18.1985  -34.6631   13.6151 S   0  0  0  0  0  0  0  0  0  0  0  0
   17.4132  -36.5770   13.2030 S   0  0  0  0  0  0  0  0  0  0  0  0
   15.3197  -36.5195   13.4549 S   0  0  0  0  0  0  0  0  0  0  0  0
   14.5345  -38.4333   13.0428 S   0  0  0  0  0  0  0  0  0  0  0  0
   12.4414  -38.3757   13.2947 S   0  0  0  0  0  0  0  0  0  0  0  0
   11.6566  -40.2889   12.8827 S   0  0  0  0  0  0  0  0  0  0  0  0
    9.5647  -40.2304   13.1346 S   0  0  0  0  0  0  0  0  0  0  0  0
    8.7821  -42.1424   12.7227 S   0  0  0  0  0  0  0  0  0  0  0  0
    6.6936  -42.0819   12.9747 S   0  0  0  0  0  0  0  0  0  0  0  0
    5.9185  -43.9909   12.5632 S   0  0  0  0  0  0  0  0  0  0  0  0
    3.8392  -43.9237   12.8157 S   0  0  0  0  0  0  0  0  0  0  0  0
    3.0824  -45.8181   12.3800 S   0  0  0  0  0  0  0  0  0  0  0  0
    1.0311  -45.7655   12.6985 S   0  0  0  0  0  0  0  0  0  0  0  0
    0.2910  -47.6437   12.2319 S   0  0  0  0  0  0  0  0  0  0  0  0
    1.1038  -48.9304   13.6133 S   0  0  0  0  0  0  0  0  0  0  0  0
    0.5683    0.7972   -0.5340 H   0  0  0  0  0  0  0  0  0  0  0  0
    0.6548    0.3068    1.1641 H   0  0  0  0  0  0  0  0  0  0  0  0
    0.6428   -0.9257   -0.1367 H   0  0  0  0  0  0  0  0  0  0  0  0
    2.9006   -2.0781    0.9405 H   0  0  0  0  0  0  0  0  0  0  0  0
    2.9101   -0.8532    2.2344 H   0  0  0  0  0  0  0  0  0  0  0  0
    5.2259   -0.1582    1.5508 H   0  0  0  0  0  0  0  0  0  0  0  0
    5.2165   -1.3744    0.2660 H   0  0  0  0  0  0  0  0  0  0  0  0
    4.9767   -3.1780    1.9765 H   0  0  0  0  0  0  0  0  0  0  0  0
    4.9860   -1.9629    3.2598 H   0  0  0  0  0  0  0  0  0  0  0  0
    7.2618   -1.2060    2.5246 H   0  0  0  0  0  0  0  0  0  0  0  0
    7.2524   -2.4218    1.2439 H   0  0  0  0  0  0  0  0  0  0  0  0
    7.0226   -4.2291    2.9605 H   0  0  0  0  0  0  0  0  0  0  0  0
    7.0298   -3.0140    4.2417 H   0  0  0  0  0  0  0  0  0  0  0  0
    9.3004   -2.2542    3.5089 H   0  0  0  0  0  0  0  0  0  0  0  0
    9.2934   -3.4697    2.2274 H   0  0  0  0  0  0  0  0  0  0  0  0
    9.0554   -5.2778    3.9425 H   0  0  0  0  0  0  0  0  0  0  0  0
    9.0602   -4.0629    5.2247 H   0  0  0  0  0  0  0  0  0  0  0  0
   11.3297   -3.3005    4.4949 H   0  0  0  0  0  0  0  0  0  0  0  0
   11.3250   -4.5136    3.2111 H   0  0  0  0  0  0  0  0  0  0  0  0
   11.0829   -6.3246    4.9235 H   0  0  0  0  0  0  0  0  0  0  0  0
   11.0898   -5.1100    6.2075 H   0  0  0  0  0  0  0  0  0  0  0  0
   13.3588   -4.3472    5.4722 H   0  0  0  0  0  0  0  0  0  0  0  0
   13.3518   -5.5632    4.1901 H   0  0  0  0  0  0  0  0  0  0  0  0
   13.1115   -7.3707    5.9048 H   0  0  0  0  0  0  0  0  0  0  0  0
   13.1164   -6.1553    7.1875 H   0  0  0  0  0  0  0  0  0  0  0  0
   15.3850   -5.3905    6.4548 H   0  0  0  0  0  0  0  0  0  0  0  0
   15.3801   -6.6063    5.1717 H   0  0  0  0  0  0  0  0  0  0  0  0
   15.1369   -8.4147    6.8870 H   0  0  0  0  0  0  0  0  0  0  0  0
   15.1439   -7.1980    8.1698 H   0  0  0  0  0  0  0  0  0  0  0  0
   17.4127   -6.4360    7.4356 H   0  0  0  0  0  0  0  0  0  0  0  0
   17.4058   -7.6511    6.1511 H   0  0  0  0  0  0  0  0  0  0  0  0
   17.1646   -9.4613    7.8636 H   0  0  0  0  0  0  0  0  0  0  0  0
   17.1693   -8.2468    9.1487 H   0  0  0  0  0  0  0  0  0  0  0  0
   19.4384   -7.4809    8.4155 H   0  0  0  0  0  0  0  0  0  0  0  0
   19.4335   -8.6970    7.1320 H   0  0  0  0  0  0  0  0  0  0  0  0
   19.1902  -10.5054    8.8476 H   0  0  0  0  0  0  0  0  0  0  0  0
   19.1971   -9.2886   10.1304 H   0  0  0  0  0  0  0  0  0  0  0  0
   21.4661   -8.5260    9.3936 H   0  0  0  0  0  0  0  0  0  0  0  0
   21.4591   -9.7445    8.1124 H   0  0  0  0  0  0  0  0  0  0  0  0
   21.2179  -11.5499    9.8299 H   0  0  0  0  0  0  0  0  0  0  0  0
   21.2228  -10.3320   11.1117 H   0  0  0  0  0  0  0  0  0  0  0  0
   23.4916   -9.5687   10.3790 H   0  0  0  0  0  0  0  0  0  0  0  0
   23.4870  -10.7850    9.0957 H   0  0  0  0  0  0  0  0  0  0  0  0
   23.2458  -12.5938   10.8095 H   0  0  0  0  0  0  0  0  0  0  0  0
   23.2483  -11.3782   12.0935 H   0  0  0  0  0  0  0  0  0  0  0  0
   25.5171  -10.6110   11.3631 H   0  0  0  0  0  0  0  0  0  0  0  0
   25.5148  -11.8266   10.0791 H   0  0  0  0  0  0  0  0  0  0  0  0
   25.2734  -13.6364   11.7919 H   0  0  0  0  0  0  0  0  0  0  0  0
   25.2735  -12.4214   13.0764 H   0  0  0  0  0  0  0  0  0  0  0  0
   27.5421  -11.6523   12.3483 H   0  0  0  0  0  0  0  0  0  0  0  0
   27.5421  -12.8667   11.0644 H   0  0  0  0  0  0  0  0  0  0  0  0
   27.2996  -14.6769   12.7768 H   0  0  0  0  0  0  0  0  0  0  0  0
   27.2996  -13.4627   14.0605 H   0  0  0  0  0  0  0  0  0  0  0  0
   29.5696  -12.6942   13.3342 H   0  0  0  0  0  0  0  0  0  0  0  0
   29.5696  -13.9090   12.0498 H   0  0  0  0  0  0  0  0  0  0  0  0
   29.3269  -15.7208   13.7619 H   0  0  0  0  0  0  0  0  0  0  0  0
   29.3270  -14.5044   15.0479 H   0  0  0  0  0  0  0  0  0  0  0  0
   31.5984  -13.7373   14.3207 H   0  0  0  0  0  0  0  0  0  0  0  0
   31.5983  -14.9523   13.0365 H   0  0  0  0  0  0  0  0  0  0  0  0
   31.3578  -16.7607   14.7488 H   0  0  0  0  0  0  0  0  0  0  0  0
   31.3579  -15.5476   16.0312 H   0  0  0  0  0  0  0  0  0  0  0  0
   33.6272  -14.7808   15.3053 H   0  0  0  0  0  0  0  0  0  0  0  0
   33.6273  -15.9933   14.0234 H   0  0  0  0  0  0  0  0  0  0  0  0
   33.3928  -17.8023   15.7348 H   0  0  0  0  0  0  0  0  0  0  0  0
   33.3905  -16.5919   17.0158 H   0  0  0  0  0  0  0  0  0  0  0  0
   35.6654  -15.8309   16.3021 H   0  0  0  0  0  0  0  0  0  0  0  0
   35.6677  -17.0425   15.0197 H   0  0  0  0  0  0  0  0  0  0  0  0
   35.4310  -18.8580   16.7308 H   0  0  0  0  0  0  0  0  0  0  0  0
   35.4262  -17.6443   18.0165 H   0  0  0  0  0  0  0  0  0  0  0  0
   37.6950  -16.8827   17.3062 H   0  0  0  0  0  0  0  0  0  0  0  0
   37.7001  -18.0942   16.0194 H   0  0  0  0  0  0  0  0  0  0  0  0
   37.5383  -19.9298   17.7352 H   0  0  0  0  0  0  0  0  0  0  0  0
   37.5352  -18.7042   19.0352 H   0  0  0  0  0  0  0  0  0  0  0  0
   39.8841  -21.0906   18.8581 H   0  0  0  0  0  0  0  0  0  0  0  0
   39.8816  -19.8724   20.1549 H   0  0  0  0  0  0  0  0  0  0  0  0
   42.1909  -18.1727   20.6472 H   0  0  0  0  0  0  0  0  0  0  0  0
   42.1587  -17.6531   18.9231 H   0  0  0  0  0  0  0  0  0  0  0  0
   44.5273  -16.4157   21.0891 H   0  0  0  0  0  0  0  0  0  0  0  0
   44.4564  -15.9206   19.4013 H   0  0  0  0  0  0  0  0  0  0  0  0
   46.8193  -17.9209   18.0405 H   0  0  0  0  0  0  0  0  0  0  0  0
   48.2682  -16.9279   18.2004 H   0  0  0  0  0  0  0  0  0  0  0  0
    0.5622  -50.1048   13.2415 H   0  0  0  0  0  0  0  0  0  0  0  0
  1  2  1  0  0  0  0
  1 82  1  0  0  0  0
  1 83  1  0  0  0  0
  1 84  1  0  0  0  0
  2  3  1  0  0  0  0
  3  4  1  0  0  0  0
  3 85  1  0  0  0  0
  3 86  1  0  0  0  0
  4  5  1  0  0  0  0
  4 87  1  0  0  0  0
  4 88  1  0  0  0  0
  5  6  1  0  0  0  0
  5 89  1  0  0  0  0
  5 90  1  0  0  0  0
  6  7  1  0  0  0  0
  6 91  1  0  0  0  0
  6 92  1  0  0  0  0
  7  8  1  0  0  0  0
  7 93  1  0  0  0  0
  7 94  1  0  0  0  0
  8  9  1  0  0  0  0
  8 95  1  0  0  0  0
  8 96  1  0  0  0  0
  9 10  1  0  0  0  0
  9 97  1  0  0  0  0
  9 98  1  0  0  0  0
 10 11  1  0  0  0  0
 10 99  1  0  0  0  0
 10100  1  0  0  0  0
 11 12  1  0  0  0  0
 11101  1  0  0  0  0
 11102  1  0  0  0  0
 12 13  1  0  0  0  0
 12103  1  0  0  0  0
 12104  1  0  0  0  0
 13 14  1  0  0  0  0
 13105  1  0  0  0  0
 13106  1  0  0  0  0
 14 15  1  0  0  0  0
 14107  1  0  0  0  0
 14108  1  0  0  0  0
 15 16  1  0  0  0  0
 15109  1  0  0  0  0
 15110  1  0  0  0  0
 16 17  1  0  0  0  0
 16111  1  0  0  0  0
 16112  1  0  0  0  0
 17 18  1  0  0  0  0
 17113  1  0  0  0  0
 17114  1  0  0  0  0
 18 19  1  0  0  0  0
 18115  1  0  0  0  0
 18116  1  0  0  0  0
 19 20  1  0  0  0  0
 19117  1  0  0  0  0
 19118  1  0  0  0  0
 20 21  1  0  0  0  0
 20119  1  0  0  0  0
 20120  1  0  0  0  0
 21 22  1  0  0  0  0
 21121  1  0  0  0  0
 21122  1  0  0  0  0
 22 23  1  0  0  0  0
 22123  1  0  0  0  0
 22124  1  0  0  0  0
 23 24  1  0  0  0  0
 23125  1  0  0  0  0
 23126  1  0  0  0  0
 24 25  1  0  0  0  0
 24127  1  0  0  0  0
 24128  1  0  0  0  0
 25 26  1  0  0  0  0
 25129  1  0  0  0  0
 25130  1  0  0  0  0
 26 27  1  0  0  0  0
 26131  1  0  0  0  0
 26132  1  0  0  0  0
 27 28  1  0  0  0  0
 27133  1  0  0  0  0
 27134  1  0  0  0  0
 28 29  1  0  0  0  0
 28135  1  0  0  0  0
 28136  1  0  0  0  0
 29 30  1  0  0  0  0
 29137  1  0  0  0  0
 29138  1  0  0  0  0
 30 31  1  0  0  0  0
 30139  1  0  0  0  0
 30140  1  0  0  0  0
 31 32  1  0  0  0  0
 31141  1  0  0  0  0
 31142  1  0  0  0  0
 32 33  1  0  0  0  0
 32143  1  0  0  0  0
 32144  1  0  0  0  0
 33 34  1  0  0  0  0
 33145  1  0  0  0  0
 33146  1  0  0  0  0
 34 35  1  0  0  0  0
 34147  1  0  0  0  0
 34148  1  0  0  0  0
 35 36  1  0  0  0  0
 35149  1  0  0  0  0
 35150  1  0  0  0  0
 36 37  1  0  0  0  0
 36151  1  0  0  0  0
 36152  1  0  0  0  0
 37 38  1  0  0  0  0
 37153  1  0  0  0  0
 37154  1  0  0  0  0
 38 39  1  0  0  0  0
 39 40  1  0  0  0  0
 39155  1  0  0  0  0
 39156  1  0  0  0  0
 40 41  1  0  0  0  0
 41 42  1  0  0  0  0
 41157  1  0  0  0  0
 41158  1  0  0  0  0
 42 43  1  0  0  0  0
 43 44  1  0  0  0  0
 43159  1  0  0  0  0
 43160  1  0  0  0  0
 44 45  1  0  0  0  0
 45 46  1  0  0  0  0
 45161  1  0  0  0  0
 45162  1  0  0  0  0
 46 47  1  0  0  0  0
 47 48  1  0  0  0  0
 48 49  1  0  0  0  0
 49 50  1  0  0  0  0
 50 51  1  0  0  0  0
 51 52  1  0  0  0  0
 52 53  1  0  0  0  0
 53 54  1  0  0  0  0
 54 55  1  0  0  0  0
 55 56  1  0  0  0  0
 56 57  1  0  0  0  0
 57 58  1  0  0  0  0
 58 59  1  0  0  0  0
 59 60  1  0  0  0  0
 60 61  1  0  0  0  0
 61 62  1  0  0  0  0
 62 63  1  0  0  0  0
 63 64  1  0  0  0  0
 64 65  1  0  0  0  0
 65 66  1  0  0  0  0
 66 67  1  0  0  0  0
 67 68  1  0  0  0  0
 68 69  1  0  0  0  0
 69 70  1  0  0  0  0
 70 71  1  0  0  0  0
 71 72  1  0  0  0  0
 72 73  1  0  0  0  0
 73 74  1  0  0  0  0
 74 75  1  0  0  0  0
 75 76  1  0  0  0  0
 76 77  1  0  0  0  0
 77 78  1  0  0  0  0
 78 79  1  0  0  0  0
 79 80  1  0  0  0  0
 80 81  1  0  0  0  0
 81163  1  0  0  0  0
M  END
$$$$
