
 OpenBabel04232216403D

238237  0  0  0  0  0  0  0  0999 V2000
    1.4496   -0.5888    0.7502 C   0  0  0  0  0  0  0  0  0  0  0  0
    2.3176    0.0283   -0.0729 C   0  0  0  0  0  0  0  0  0  0  0  0
    3.0966   -0.7022   -1.1165 C   0  0  0  0  0  0  0  0  0  0  0  0
    4.5305   -0.5407   -0.9048 N   0  0  0  0  0  0  0  0  0  0  0  0
    5.2484   -1.2739   -1.9348 C   0  0  0  0  0  0  0  0  0  0  0  0
    6.6807   -1.1214   -1.7280 N   0  0  0  0  0  0  0  0  0  0  0  0
    7.4170   -1.8479   -2.7589 C   0  0  0  0  0  0  0  0  0  0  0  0
    8.9128   -1.6827   -2.5372 C   0  0  0  0  0  0  0  0  0  0  0  0
    9.6827   -2.4384   -3.6119 C   0  0  0  0  0  0  0  0  0  0  0  0
   11.1779   -2.2775   -3.3994 C   0  0  0  0  0  0  0  0  0  0  0  0
   11.9422   -3.0310   -4.4737 C   0  0  0  0  0  0  0  0  0  0  0  0
   13.4356   -2.8660   -4.2588 C   0  0  0  0  0  0  0  0  0  0  0  0
   14.1991   -3.6204   -5.3311 C   0  0  0  0  0  0  0  0  0  0  0  0
   15.6915   -3.4563   -5.1140 C   0  0  0  0  0  0  0  0  0  0  0  0
   16.4542   -4.2107   -6.1861 C   0  0  0  0  0  0  0  0  0  0  0  0
   17.9463   -4.0481   -5.9676 C   0  0  0  0  0  0  0  0  0  0  0  0
   18.7090   -4.8009   -7.0409 C   0  0  0  0  0  0  0  0  0  0  0  0
   20.2009   -4.6399   -6.8212 C   0  0  0  0  0  0  0  0  0  0  0  0
   20.9633   -5.3944   -7.8935 C   0  0  0  0  0  0  0  0  0  0  0  0
   22.4553   -5.2350   -7.6725 C   0  0  0  0  0  0  0  0  0  0  0  0
   23.2177   -5.9911   -8.7436 C   0  0  0  0  0  0  0  0  0  0  0  0
   24.7097   -5.8333   -8.5214 C   0  0  0  0  0  0  0  0  0  0  0  0
   25.4721   -6.5878   -9.5937 C   0  0  0  0  0  0  0  0  0  0  0  0
   26.9642   -6.4316   -9.3703 C   0  0  0  0  0  0  0  0  0  0  0  0
   27.7266   -7.1861  -10.4426 C   0  0  0  0  0  0  0  0  0  0  0  0
   29.2186   -7.0284  -10.2203 C   0  0  0  0  0  0  0  0  0  0  0  0
   29.9810   -7.7828  -11.2927 C   0  0  0  0  0  0  0  0  0  0  0  0
   31.4730   -7.6250  -11.0704 C   0  0  0  0  0  0  0  0  0  0  0  0
   32.2354   -8.3795  -12.1428 C   0  0  0  0  0  0  0  0  0  0  0  0
   33.7274   -8.2217  -11.9205 C   0  0  0  0  0  0  0  0  0  0  0  0
   34.4898   -8.9762  -12.9928 C   0  0  0  0  0  0  0  0  0  0  0  0
   35.9818   -8.8184  -12.7706 C   0  0  0  0  0  0  0  0  0  0  0  0
   36.7442   -9.5713  -13.8441 C   0  0  0  0  0  0  0  0  0  0  0  0
   38.2362   -9.4135  -13.6218 C   0  0  0  0  0  0  0  0  0  0  0  0
   38.9986  -10.1663  -14.6953 C   0  0  0  0  0  0  0  0  0  0  0  0
   40.4906  -10.0085  -14.4731 C   0  0  0  0  0  0  0  0  0  0  0  0
   41.2530  -10.7597  -15.5477 C   0  0  0  0  0  0  0  0  0  0  0  0
   42.7451  -10.6035  -15.3243 C   0  0  0  0  0  0  0  0  0  0  0  0
   43.5074  -11.3531  -16.4001 C   0  0  0  0  0  0  0  0  0  0  0  0
   44.9995  -11.1986  -16.1756 C   0  0  0  0  0  0  0  0  0  0  0  0
   45.7619  -11.9498  -17.2502 C   0  0  0  0  0  0  0  0  0  0  0  0
   47.2539  -11.7937  -17.0268 C   0  0  0  0  0  0  0  0  0  0  0  0
   48.0163  -12.5448  -18.1014 C   0  0  0  0  0  0  0  0  0  0  0  0
   49.5083  -12.3887  -17.8780 C   0  0  0  0  0  0  0  0  0  0  0  0
   50.2707  -13.1399  -18.9527 C   0  0  0  0  0  0  0  0  0  0  0  0
   51.7627  -12.9837  -18.7293 C   0  0  0  0  0  0  0  0  0  0  0  0
   52.5251  -13.7349  -19.8039 C   0  0  0  0  0  0  0  0  0  0  0  0
   54.0171  -13.5804  -19.5794 C   0  0  0  0  0  0  0  0  0  0  0  0
   54.7795  -14.3300  -20.6552 C   0  0  0  0  0  0  0  0  0  0  0  0
   56.2715  -14.1771  -20.4295 C   0  0  0  0  0  0  0  0  0  0  0  0
   57.0339  -14.9267  -21.5053 C   0  0  0  0  0  0  0  0  0  0  0  0
   58.5259  -14.7755  -21.2784 C   0  0  0  0  0  0  0  0  0  0  0  0
   59.2883  -15.5267  -22.3531 C   0  0  0  0  0  0  0  0  0  0  0  0
   60.7803  -15.3772  -22.1251 C   0  0  0  0  0  0  0  0  0  0  0  0
   61.5427  -16.1300  -23.1986 C   0  0  0  0  0  0  0  0  0  0  0  0
   63.0346  -15.9821  -22.9694 C   0  0  0  0  0  0  0  0  0  0  0  0
   63.7970  -16.7334  -24.0440 C   0  0  0  0  0  0  0  0  0  0  0  0
   65.2890  -16.5855  -23.8149 C   0  0  0  0  0  0  0  0  0  0  0  0
   66.0514  -17.3383  -24.8884 C   0  0  0  0  0  0  0  0  0  0  0  0
   67.5434  -17.1904  -24.6592 C   0  0  0  0  0  0  0  0  0  0  0  0
   68.3057  -17.9433  -25.7327 C   0  0  0  0  0  0  0  0  0  0  0  0
   69.7977  -17.7954  -25.5035 C   0  0  0  0  0  0  0  0  0  0  0  0
   70.5601  -18.5483  -26.5770 C   0  0  0  0  0  0  0  0  0  0  0  0
   72.0521  -18.4004  -26.3479 C   0  0  0  0  0  0  0  0  0  0  0  0
   72.8145  -19.1533  -27.4214 C   0  0  0  0  0  0  0  0  0  0  0  0
   74.3065  -19.0054  -27.1922 C   0  0  0  0  0  0  0  0  0  0  0  0
   75.0689  -19.7582  -28.2657 C   0  0  0  0  0  0  0  0  0  0  0  0
   76.5608  -19.6104  -28.0366 C   0  0  0  0  0  0  0  0  0  0  0  0
   77.3233  -20.3648  -29.1088 C   0  0  0  0  0  0  0  0  0  0  0  0
   78.8152  -20.2171  -28.8799 C   0  0  0  0  0  0  0  0  0  0  0  0
   79.5777  -20.9714  -29.9519 C   0  0  0  0  0  0  0  0  0  0  0  0
   81.0697  -20.8238  -29.7231 C   0  0  0  0  0  0  0  0  0  0  0  0
   81.8325  -21.5782  -30.7953 C   0  0  0  0  0  0  0  0  0  0  0  0
   83.3247  -21.4305  -30.5664 C   0  0  0  0  0  0  0  0  0  0  0  0
   84.0880  -22.1833  -31.6399 C   0  0  0  0  0  0  0  0  0  0  0  0
   85.5813  -22.0364  -31.4122 C   0  0  0  0  0  0  0  0  0  0  0  0
   86.3458  -22.7900  -32.4866 C   0  0  0  0  0  0  0  0  0  0  0  0
   87.8409  -22.6462  -32.2598 C   0  0  0  0  0  0  0  0  0  0  0  0
   88.6152  -23.3999  -33.3308 C   0  0  0  0  0  0  0  0  0  0  0  0
   90.1061  -23.2543  -33.1014 C   0  0  0  0  0  0  0  0  0  0  0  0
    0.8957   -0.0226    1.4883 H   0  0  0  0  0  0  0  0  0  0  0  0
    1.2921   -1.6572    0.6962 H   0  0  0  0  0  0  0  0  0  0  0  0
    2.4351    1.1053    0.0119 H   0  0  0  0  0  0  0  0  0  0  0  0
    2.8165   -0.3120   -2.1024 H   0  0  0  0  0  0  0  0  0  0  0  0
    2.8314   -1.7674   -1.0942 H   0  0  0  0  0  0  0  0  0  0  0  0
    4.7491   -0.9263    0.0132 H   0  0  0  0  0  0  0  0  0  0  0  0
    4.9841   -0.8719   -2.9207 H   0  0  0  0  0  0  0  0  0  0  0  0
    4.9804   -2.3380   -1.9078 H   0  0  0  0  0  0  0  0  0  0  0  0
    6.9196   -1.4839   -0.8060 H   0  0  0  0  0  0  0  0  0  0  0  0
    7.1551   -1.4594   -3.7508 H   0  0  0  0  0  0  0  0  0  0  0  0
    7.1592   -2.9136   -2.7330 H   0  0  0  0  0  0  0  0  0  0  0  0
    9.1947   -2.0636   -1.5476 H   0  0  0  0  0  0  0  0  0  0  0  0
    9.1855   -0.6202   -2.5682 H   0  0  0  0  0  0  0  0  0  0  0  0
    9.4072   -2.0622   -4.6051 H   0  0  0  0  0  0  0  0  0  0  0  0
    9.4172   -3.5026   -3.5841 H   0  0  0  0  0  0  0  0  0  0  0  0
   11.4574   -2.6574   -2.4092 H   0  0  0  0  0  0  0  0  0  0  0  0
   11.4471   -1.2146   -3.4284 H   0  0  0  0  0  0  0  0  0  0  0  0
   11.6648   -2.6532   -5.4656 H   0  0  0  0  0  0  0  0  0  0  0  0
   11.6772   -4.0951   -4.4454 H   0  0  0  0  0  0  0  0  0  0  0  0
   13.7146   -3.2430   -3.2672 H   0  0  0  0  0  0  0  0  0  0  0  0
   13.7026   -1.8024   -4.2894 H   0  0  0  0  0  0  0  0  0  0  0  0
   13.9224   -3.2427   -6.3231 H   0  0  0  0  0  0  0  0  0  0  0  0
   13.9324   -4.6841   -5.3019 H   0  0  0  0  0  0  0  0  0  0  0  0
   15.9689   -3.8342   -4.1222 H   0  0  0  0  0  0  0  0  0  0  0  0
   15.9590   -2.3929   -5.1434 H   0  0  0  0  0  0  0  0  0  0  0  0
   16.1783   -3.8319   -7.1779 H   0  0  0  0  0  0  0  0  0  0  0  0
   16.1862   -5.2741   -6.1578 H   0  0  0  0  0  0  0  0  0  0  0  0
   18.2226   -4.4283   -4.9764 H   0  0  0  0  0  0  0  0  0  0  0  0
   18.2146   -2.9848   -5.9947 H   0  0  0  0  0  0  0  0  0  0  0  0
   18.4338   -4.4197   -8.0321 H   0  0  0  0  0  0  0  0  0  0  0  0
   18.4398   -5.8640   -7.0148 H   0  0  0  0  0  0  0  0  0  0  0  0
   20.4759   -5.0198   -5.8296 H   0  0  0  0  0  0  0  0  0  0  0  0
   20.4704   -3.5769   -6.8487 H   0  0  0  0  0  0  0  0  0  0  0  0
   20.6894   -5.0136   -8.8850 H   0  0  0  0  0  0  0  0  0  0  0  0
   20.6929   -6.4571   -7.8668 H   0  0  0  0  0  0  0  0  0  0  0  0
   22.7289   -5.6146   -6.6804 H   0  0  0  0  0  0  0  0  0  0  0  0
   22.7260   -4.1723   -7.7005 H   0  0  0  0  0  0  0  0  0  0  0  0
   22.9451   -5.6106   -9.7356 H   0  0  0  0  0  0  0  0  0  0  0  0
   22.9460   -7.0535   -8.7165 H   0  0  0  0  0  0  0  0  0  0  0  0
   24.9825   -6.2151   -7.5299 H   0  0  0  0  0  0  0  0  0  0  0  0
   24.9813   -4.7709   -8.5471 H   0  0  0  0  0  0  0  0  0  0  0  0
   25.2004   -6.2050  -10.5850 H   0  0  0  0  0  0  0  0  0  0  0  0
   25.1996   -7.6500   -9.5689 H   0  0  0  0  0  0  0  0  0  0  0  0
   27.2359   -6.8145   -8.3789 H   0  0  0  0  0  0  0  0  0  0  0  0
   27.2367   -5.3694   -9.3950 H   0  0  0  0  0  0  0  0  0  0  0  0
   27.4538   -6.8043  -11.4340 H   0  0  0  0  0  0  0  0  0  0  0  0
   27.4550   -8.2486  -10.4169 H   0  0  0  0  0  0  0  0  0  0  0  0
   29.4914   -7.4102   -9.2289 H   0  0  0  0  0  0  0  0  0  0  0  0
   29.4901   -5.9659  -10.2461 H   0  0  0  0  0  0  0  0  0  0  0  0
   29.7082   -7.4010  -12.2841 H   0  0  0  0  0  0  0  0  0  0  0  0
   29.7095   -8.8453  -11.2670 H   0  0  0  0  0  0  0  0  0  0  0  0
   31.7458   -8.0069  -10.0790 H   0  0  0  0  0  0  0  0  0  0  0  0
   31.7445   -6.5626  -11.0961 H   0  0  0  0  0  0  0  0  0  0  0  0
   31.9626   -7.9977  -13.1342 H   0  0  0  0  0  0  0  0  0  0  0  0
   31.9639   -9.4420  -12.1171 H   0  0  0  0  0  0  0  0  0  0  0  0
   34.0002   -8.6036  -10.9291 H   0  0  0  0  0  0  0  0  0  0  0  0
   33.9989   -7.1593  -11.9462 H   0  0  0  0  0  0  0  0  0  0  0  0
   34.2170   -8.5944  -13.9842 H   0  0  0  0  0  0  0  0  0  0  0  0
   34.2183  -10.0387  -12.9672 H   0  0  0  0  0  0  0  0  0  0  0  0
   36.2548   -9.2016  -11.7797 H   0  0  0  0  0  0  0  0  0  0  0  0
   36.2531   -7.7559  -12.7949 H   0  0  0  0  0  0  0  0  0  0  0  0
   36.4712   -9.1881  -14.8349 H   0  0  0  0  0  0  0  0  0  0  0  0
   36.4729  -10.6338  -13.8198 H   0  0  0  0  0  0  0  0  0  0  0  0
   38.5092   -9.7966  -12.6310 H   0  0  0  0  0  0  0  0  0  0  0  0
   38.5075   -8.3509  -13.6461 H   0  0  0  0  0  0  0  0  0  0  0  0
   38.7256   -9.7831  -15.6862 H   0  0  0  0  0  0  0  0  0  0  0  0
   38.7274  -11.2288  -14.6711 H   0  0  0  0  0  0  0  0  0  0  0  0
   40.7638  -10.3930  -13.4828 H   0  0  0  0  0  0  0  0  0  0  0  0
   40.7618   -8.9459  -14.4959 H   0  0  0  0  0  0  0  0  0  0  0  0
   40.9808  -10.3742  -16.5379 H   0  0  0  0  0  0  0  0  0  0  0  0
   40.9809  -11.8221  -15.5259 H   0  0  0  0  0  0  0  0  0  0  0  0
   43.0174  -10.9903  -14.3347 H   0  0  0  0  0  0  0  0  0  0  0  0
   43.0170   -9.5411  -15.3448 H   0  0  0  0  0  0  0  0  0  0  0  0
   43.2361  -10.9654  -17.3896 H   0  0  0  0  0  0  0  0  0  0  0  0
   43.2345  -12.4153  -16.3806 H   0  0  0  0  0  0  0  0  0  0  0  0
   45.2706  -11.5851  -15.1855 H   0  0  0  0  0  0  0  0  0  0  0  0
   45.2726  -10.1365  -16.1965 H   0  0  0  0  0  0  0  0  0  0  0  0
   45.4897  -11.5643  -18.2404 H   0  0  0  0  0  0  0  0  0  0  0  0
   45.4897  -13.0121  -17.2283 H   0  0  0  0  0  0  0  0  0  0  0  0
   47.5260  -12.1791  -16.0366 H   0  0  0  0  0  0  0  0  0  0  0  0
   47.5260  -10.7313  -17.0487 H   0  0  0  0  0  0  0  0  0  0  0  0
   47.7441  -12.1594  -19.0916 H   0  0  0  0  0  0  0  0  0  0  0  0
   47.7441  -13.6072  -18.0796 H   0  0  0  0  0  0  0  0  0  0  0  0
   49.7804  -12.7742  -16.8879 H   0  0  0  0  0  0  0  0  0  0  0  0
   49.7804  -11.3263  -17.8999 H   0  0  0  0  0  0  0  0  0  0  0  0
   49.9985  -12.7544  -19.9429 H   0  0  0  0  0  0  0  0  0  0  0  0
   49.9985  -14.2022  -18.9308 H   0  0  0  0  0  0  0  0  0  0  0  0
   52.0348  -13.3692  -17.7391 H   0  0  0  0  0  0  0  0  0  0  0  0
   52.0349  -11.9214  -18.7512 H   0  0  0  0  0  0  0  0  0  0  0  0
   52.2540  -13.3485  -20.7940 H   0  0  0  0  0  0  0  0  0  0  0  0
   52.2519  -14.7970  -19.7830 H   0  0  0  0  0  0  0  0  0  0  0  0
   54.2883  -13.9682  -18.5898 H   0  0  0  0  0  0  0  0  0  0  0  0
   54.2901  -12.5183  -19.5989 H   0  0  0  0  0  0  0  0  0  0  0  0
   54.5093  -13.9412  -21.6446 H   0  0  0  0  0  0  0  0  0  0  0  0
   54.5054  -15.3919  -20.6366 H   0  0  0  0  0  0  0  0  0  0  0  0
   56.5417  -14.5659  -19.4400 H   0  0  0  0  0  0  0  0  0  0  0  0
   56.5456  -13.1152  -20.4480 H   0  0  0  0  0  0  0  0  0  0  0  0
   56.7648  -14.5370  -22.4947 H   0  0  0  0  0  0  0  0  0  0  0  0
   56.7587  -15.9883  -21.4876 H   0  0  0  0  0  0  0  0  0  0  0  0
   58.7948  -15.1639  -20.2885 H   0  0  0  0  0  0  0  0  0  0  0  0
   58.8013  -13.7139  -21.2974 H   0  0  0  0  0  0  0  0  0  0  0  0
   59.0204  -15.1373  -23.3429 H   0  0  0  0  0  0  0  0  0  0  0  0
   59.0118  -16.5880  -22.3349 H   0  0  0  0  0  0  0  0  0  0  0  0
   61.0479  -15.7652  -21.1346 H   0  0  0  0  0  0  0  0  0  0  0  0
   61.0570  -14.3159  -22.1445 H   0  0  0  0  0  0  0  0  0  0  0  0
   61.2761  -15.7410  -24.1889 H   0  0  0  0  0  0  0  0  0  0  0  0
   61.2650  -17.1910  -23.1800 H   0  0  0  0  0  0  0  0  0  0  0  0
   63.3013  -16.3725  -21.9796 H   0  0  0  0  0  0  0  0  0  0  0  0
   63.3122  -14.9211  -22.9866 H   0  0  0  0  0  0  0  0  0  0  0  0
   63.5303  -16.3430  -25.0338 H   0  0  0  0  0  0  0  0  0  0  0  0
   63.5195  -17.7944  -24.0269 H   0  0  0  0  0  0  0  0  0  0  0  0
   65.5556  -16.9745  -22.8246 H   0  0  0  0  0  0  0  0  0  0  0  0
   65.5668  -15.5245  -23.8334 H   0  0  0  0  0  0  0  0  0  0  0  0
   65.7849  -16.9493  -25.8787 H   0  0  0  0  0  0  0  0  0  0  0  0
   65.7736  -18.3993  -24.8698 H   0  0  0  0  0  0  0  0  0  0  0  0
   67.8099  -17.5795  -23.6689 H   0  0  0  0  0  0  0  0  0  0  0  0
   67.8211  -16.1295  -24.6778 H   0  0  0  0  0  0  0  0  0  0  0  0
   68.0392  -17.5543  -26.7230 H   0  0  0  0  0  0  0  0  0  0  0  0
   68.0280  -19.0043  -25.7141 H   0  0  0  0  0  0  0  0  0  0  0  0
   70.0643  -18.1844  -24.5132 H   0  0  0  0  0  0  0  0  0  0  0  0
   70.0755  -16.7345  -25.5221 H   0  0  0  0  0  0  0  0  0  0  0  0
   70.2936  -18.1593  -27.5674 H   0  0  0  0  0  0  0  0  0  0  0  0
   70.2823  -19.6092  -26.5585 H   0  0  0  0  0  0  0  0  0  0  0  0
   72.3186  -18.7894  -25.3575 H   0  0  0  0  0  0  0  0  0  0  0  0
   72.3299  -17.3394  -26.3665 H   0  0  0  0  0  0  0  0  0  0  0  0
   72.5480  -18.7642  -28.4117 H   0  0  0  0  0  0  0  0  0  0  0  0
   72.5367  -20.2142  -27.4028 H   0  0  0  0  0  0  0  0  0  0  0  0
   74.5730  -19.3944  -26.2019 H   0  0  0  0  0  0  0  0  0  0  0  0
   74.5842  -17.9444  -27.2108 H   0  0  0  0  0  0  0  0  0  0  0  0
   74.8024  -19.3692  -29.2561 H   0  0  0  0  0  0  0  0  0  0  0  0
   74.7911  -20.8192  -28.2471 H   0  0  0  0  0  0  0  0  0  0  0  0
   76.8272  -19.9981  -27.0456 H   0  0  0  0  0  0  0  0  0  0  0  0
   76.8388  -18.5495  -28.0566 H   0  0  0  0  0  0  0  0  0  0  0  0
   77.0569  -19.9772  -30.0998 H   0  0  0  0  0  0  0  0  0  0  0  0
   77.0453  -21.4258  -29.0889 H   0  0  0  0  0  0  0  0  0  0  0  0
   79.0816  -20.6047  -27.8888 H   0  0  0  0  0  0  0  0  0  0  0  0
   79.0933  -19.1561  -28.8998 H   0  0  0  0  0  0  0  0  0  0  0  0
   79.3113  -20.5838  -30.9431 H   0  0  0  0  0  0  0  0  0  0  0  0
   79.2996  -22.0324  -29.9321 H   0  0  0  0  0  0  0  0  0  0  0  0
   81.3360  -21.2114  -28.7320 H   0  0  0  0  0  0  0  0  0  0  0  0
   81.3476  -19.7628  -29.7430 H   0  0  0  0  0  0  0  0  0  0  0  0
   81.5658  -21.1905  -31.7862 H   0  0  0  0  0  0  0  0  0  0  0  0
   81.5542  -22.6391  -30.7753 H   0  0  0  0  0  0  0  0  0  0  0  0
   83.5908  -21.8193  -29.5758 H   0  0  0  0  0  0  0  0  0  0  0  0
   83.6021  -20.3693  -30.5848 H   0  0  0  0  0  0  0  0  0  0  0  0
   83.8208  -21.7942  -32.6300 H   0  0  0  0  0  0  0  0  0  0  0  0
   83.8095  -23.2442  -31.6211 H   0  0  0  0  0  0  0  0  0  0  0  0
   85.8468  -22.4248  -30.4212 H   0  0  0  0  0  0  0  0  0  0  0  0
   85.8582  -20.9751  -31.4299 H   0  0  0  0  0  0  0  0  0  0  0  0
   86.0779  -22.3993  -33.4759 H   0  0  0  0  0  0  0  0  0  0  0  0
   86.0646  -23.8500  -32.4679 H   0  0  0  0  0  0  0  0  0  0  0  0
   88.1028  -23.0329  -31.2670 H   0  0  0  0  0  0  0  0  0  0  0  0
   88.1166  -21.5844  -32.2763 H   0  0  0  0  0  0  0  0  0  0  0  0
   88.3544  -23.0120  -34.3225 H   0  0  0  0  0  0  0  0  0  0  0  0
   88.3405  -24.4611  -33.3127 H   0  0  0  0  0  0  0  0  0  0  0  0
   90.4007  -22.2006  -33.1369 H   0  0  0  0  0  0  0  0  0  0  0  0
   90.6626  -23.7956  -33.8705 H   0  0  0  0  0  0  0  0  0  0  0  0
   90.3868  -23.6562  -32.1226 H   0  0  0  0  0  0  0  0  0  0  0  0
  1  2  2  0  0  0  0
  1 81  1  0  0  0  0
  1 82  1  0  0  0  0
  2  3  1  0  0  0  0
  2 83  1  0  0  0  0
  3  4  1  0  0  0  0
  3 84  1  0  0  0  0
  3 85  1  0  0  0  0
  4  5  1  0  0  0  0
  4 86  1  0  0  0  0
  5  6  1  0  0  0  0
  5 87  1  0  0  0  0
  5 88  1  0  0  0  0
  6  7  1  0  0  0  0
  6 89  1  0  0  0  0
  7  8  1  0  0  0  0
  7 90  1  0  0  0  0
  7 91  1  0  0  0  0
  8  9  1  0  0  0  0
  8 92  1  0  0  0  0
  8 93  1  0  0  0  0
  9 10  1  0  0  0  0
  9 94  1  0  0  0  0
  9 95  1  0  0  0  0
 10 11  1  0  0  0  0
 10 96  1  0  0  0  0
 10 97  1  0  0  0  0
 11 12  1  0  0  0  0
 11 98  1  0  0  0  0
 11 99  1  0  0  0  0
 12 13  1  0  0  0  0
 12100  1  0  0  0  0
 12101  1  0  0  0  0
 13 14  1  0  0  0  0
 13102  1  0  0  0  0
 13103  1  0  0  0  0
 14 15  1  0  0  0  0
 14104  1  0  0  0  0
 14105  1  0  0  0  0
 15 16  1  0  0  0  0
 15106  1  0  0  0  0
 15107  1  0  0  0  0
 16 17  1  0  0  0  0
 16108  1  0  0  0  0
 16109  1  0  0  0  0
 17 18  1  0  0  0  0
 17110  1  0  0  0  0
 17111  1  0  0  0  0
 18 19  1  0  0  0  0
 18112  1  0  0  0  0
 18113  1  0  0  0  0
 19 20  1  0  0  0  0
 19114  1  0  0  0  0
 19115  1  0  0  0  0
 20 21  1  0  0  0  0
 20116  1  0  0  0  0
 20117  1  0  0  0  0
 21 22  1  0  0  0  0
 21118  1  0  0  0  0
 21119  1  0  0  0  0
 22 23  1  0  0  0  0
 22120  1  0  0  0  0
 22121  1  0  0  0  0
 23 24  1  0  0  0  0
 23122  1  0  0  0  0
 23123  1  0  0  0  0
 24 25  1  0  0  0  0
 24124  1  0  0  0  0
 24125  1  0  0  0  0
 25 26  1  0  0  0  0
 25126  1  0  0  0  0
 25127  1  0  0  0  0
 26 27  1  0  0  0  0
 26128  1  0  0  0  0
 26129  1  0  0  0  0
 27 28  1  0  0  0  0
 27130  1  0  0  0  0
 27131  1  0  0  0  0
 28 29  1  0  0  0  0
 28132  1  0  0  0  0
 28133  1  0  0  0  0
 29 30  1  0  0  0  0
 29134  1  0  0  0  0
 29135  1  0  0  0  0
 30 31  1  0  0  0  0
 30136  1  0  0  0  0
 30137  1  0  0  0  0
 31 32  1  0  0  0  0
 31138  1  0  0  0  0
 31139  1  0  0  0  0
 32 33  1  0  0  0  0
 32140  1  0  0  0  0
 32141  1  0  0  0  0
 33 34  1  0  0  0  0
 33142  1  0  0  0  0
 33143  1  0  0  0  0
 34 35  1  0  0  0  0
 34144  1  0  0  0  0
 34145  1  0  0  0  0
 35 36  1  0  0  0  0
 35146  1  0  0  0  0
 35147  1  0  0  0  0
 36 37  1  0  0  0  0
 36148  1  0  0  0  0
 36149  1  0  0  0  0
 37 38  1  0  0  0  0
 37150  1  0  0  0  0
 37151  1  0  0  0  0
 38 39  1  0  0  0  0
 38152  1  0  0  0  0
 38153  1  0  0  0  0
 39 40  1  0  0  0  0
 39154  1  0  0  0  0
 39155  1  0  0  0  0
 40 41  1  0  0  0  0
 40156  1  0  0  0  0
 40157  1  0  0  0  0
 41 42  1  0  0  0  0
 41158  1  0  0  0  0
 41159  1  0  0  0  0
 42 43  1  0  0  0  0
 42160  1  0  0  0  0
 42161  1  0  0  0  0
 43 44  1  0  0  0  0
 43162  1  0  0  0  0
 43163  1  0  0  0  0
 44 45  1  0  0  0  0
 44164  1  0  0  0  0
 44165  1  0  0  0  0
 45 46  1  0  0  0  0
 45166  1  0  0  0  0
 45167  1  0  0  0  0
 46 47  1  0  0  0  0
 46168  1  0  0  0  0
 46169  1  0  0  0  0
 47 48  1  0  0  0  0
 47170  1  0  0  0  0
 47171  1  0  0  0  0
 48 49  1  0  0  0  0
 48172  1  0  0  0  0
 48173  1  0  0  0  0
 49 50  1  0  0  0  0
 49174  1  0  0  0  0
 49175  1  0  0  0  0
 50 51  1  0  0  0  0
 50176  1  0  0  0  0
 50177  1  0  0  0  0
 51 52  1  0  0  0  0
 51178  1  0  0  0  0
 51179  1  0  0  0  0
 52 53  1  0  0  0  0
 52180  1  0  0  0  0
 52181  1  0  0  0  0
 53 54  1  0  0  0  0
 53182  1  0  0  0  0
 53183  1  0  0  0  0
 54 55  1  0  0  0  0
 54184  1  0  0  0  0
 54185  1  0  0  0  0
 55 56  1  0  0  0  0
 55186  1  0  0  0  0
 55187  1  0  0  0  0
 56 57  1  0  0  0  0
 56188  1  0  0  0  0
 56189  1  0  0  0  0
 57 58  1  0  0  0  0
 57190  1  0  0  0  0
 57191  1  0  0  0  0
 58 59  1  0  0  0  0
 58192  1  0  0  0  0
 58193  1  0  0  0  0
 59 60  1  0  0  0  0
 59194  1  0  0  0  0
 59195  1  0  0  0  0
 60 61  1  0  0  0  0
 60196  1  0  0  0  0
 60197  1  0  0  0  0
 61 62  1  0  0  0  0
 61198  1  0  0  0  0
 61199  1  0  0  0  0
 62 63  1  0  0  0  0
 62200  1  0  0  0  0
 62201  1  0  0  0  0
 63 64  1  0  0  0  0
 63202  1  0  0  0  0
 63203  1  0  0  0  0
 64 65  1  0  0  0  0
 64204  1  0  0  0  0
 64205  1  0  0  0  0
 65 66  1  0  0  0  0
 65206  1  0  0  0  0
 65207  1  0  0  0  0
 66 67  1  0  0  0  0
 66208  1  0  0  0  0
 66209  1  0  0  0  0
 67 68  1  0  0  0  0
 67210  1  0  0  0  0
 67211  1  0  0  0  0
 68 69  1  0  0  0  0
 68212  1  0  0  0  0
 68213  1  0  0  0  0
 69 70  1  0  0  0  0
 69214  1  0  0  0  0
 69215  1  0  0  0  0
 70 71  1  0  0  0  0
 70216  1  0  0  0  0
 70217  1  0  0  0  0
 71 72  1  0  0  0  0
 71218  1  0  0  0  0
 71219  1  0  0  0  0
 72 73  1  0  0  0  0
 72220  1  0  0  0  0
 72221  1  0  0  0  0
 73 74  1  0  0  0  0
 73222  1  0  0  0  0
 73223  1  0  0  0  0
 74 75  1  0  0  0  0
 74224  1  0  0  0  0
 74225  1  0  0  0  0
 75 76  1  0  0  0  0
 75226  1  0  0  0  0
 75227  1  0  0  0  0
 76 77  1  0  0  0  0
 76228  1  0  0  0  0
 76229  1  0  0  0  0
 77 78  1  0  0  0  0
 77230  1  0  0  0  0
 77231  1  0  0  0  0
 78 79  1  0  0  0  0
 78232  1  0  0  0  0
 78233  1  0  0  0  0
 79 80  1  0  0  0  0
 79234  1  0  0  0  0
 79235  1  0  0  0  0
 80236  1  0  0  0  0
 80237  1  0  0  0  0
 80238  1  0  0  0  0
M  END
$$$$
