
 OpenBabel04232216473D

145145  0  0  1  0  0  0  0  0999 V2000
   -1.8671   -4.8385    2.1298 C   0  0  0  0  0  0  0  0  0  0  0  0
   -0.7047   -5.3118    1.2927 C   0  0  3  0  0  0  0  0  0  0  0  0
   -0.2687   -6.6061    1.2784 C   0  0  0  0  0  0  0  0  0  0  0  0
    0.5398   -5.8908    2.0403 C   0  0  0  0  0  0  0  0  0  0  0  0
    1.1553   -4.6399    2.6903 C   0  0  0  0  0  0  0  0  0  0  0  0
    2.5879   -4.6528    2.7702 O   0  0  0  0  0  0  0  0  0  0  0  0
    3.0447   -3.4671    3.4576 C   0  0  0  0  0  0  0  0  0  0  0  0
    2.5211   -3.2826    4.7604 O   0  0  0  0  0  0  0  0  0  0  0  0
    2.8333   -4.3841    5.5686 C   0  0  0  0  0  0  0  0  0  0  0  0
    2.2086   -4.1349    6.7839 O   0  0  0  0  0  0  0  0  0  0  0  0
    2.5824   -5.2576    7.5438 O   0  0  0  0  0  0  0  0  0  0  0  0
    2.0096   -5.1067    8.8050 O   0  0  0  0  0  0  0  0  0  0  0  0
    2.3764   -6.2136    9.5629 O   0  0  0  0  0  0  0  0  0  0  0  0
    1.7941   -6.0375   10.8097 O   0  0  0  0  0  0  0  0  0  0  0  0
    2.1511   -7.1318   11.5733 O   0  0  0  0  0  0  0  0  0  0  0  0
    1.5626   -6.9371   12.8073 O   0  0  0  0  0  0  0  0  0  0  0  0
    1.9173   -8.0249   13.5672 O   0  0  0  0  0  0  0  0  0  0  0  0
    1.3286   -7.8258   14.7946 O   0  0  0  0  0  0  0  0  0  0  0  0
    1.6870   -8.9134   15.5445 O   0  0  0  0  0  0  0  0  0  0  0  0
    1.1004   -8.7150   16.7679 O   0  0  0  0  0  0  0  0  0  0  0  0
    1.4618   -9.8051   17.5136 O   0  0  0  0  0  0  0  0  0  0  0  0
    0.8784   -9.6049   18.7258 O   0  0  0  0  0  0  0  0  0  0  0  0
    1.2354  -10.6921   19.4786 O   0  0  0  0  0  0  0  0  0  0  0  0
    0.6508  -10.4926   20.6949 O   0  0  0  0  0  0  0  0  0  0  0  0
    1.0155  -11.5828   21.4323 O   0  0  0  0  0  0  0  0  0  0  0  0
    0.4316  -11.3851   22.6495 O   0  0  0  0  0  0  0  0  0  0  0  0
    0.7966  -12.4768   23.3884 O   0  0  0  0  0  0  0  0  0  0  0  0
    0.2140  -12.2796   24.6033 O   0  0  0  0  0  0  0  0  0  0  0  0
    0.5751  -13.3680   25.3470 O   0  0  0  0  0  0  0  0  0  0  0  0
   -0.0184  -13.1559   26.5674 O   0  0  0  0  0  0  0  0  0  0  0  0
    0.3356  -14.2319   27.3105 O   0  0  0  0  0  0  0  0  0  0  0  0
   -0.2527  -14.0296   28.5322 O   0  0  0  0  0  0  0  0  0  0  0  0
    0.1088  -15.1078   29.2593 O   0  0  0  0  0  0  0  0  0  0  0  0
   -0.4796  -14.9071   30.4837 O   0  0  0  0  0  0  0  0  0  0  0  0
   -0.1177  -15.9907   31.2182 O   0  0  0  0  0  0  0  0  0  0  0  0
   -0.6990  -15.7936   32.4296 O   0  0  0  0  0  0  0  0  0  0  0  0
   -0.3377  -16.8843   33.1767 O   0  0  0  0  0  0  0  0  0  0  0  0
   -0.9225  -16.6795   34.3852 O   0  0  0  0  0  0  0  0  0  0  0  0
   -0.5585  -17.7737   35.1308 O   0  0  0  0  0  0  0  0  0  0  0  0
   -1.1480  -17.5653   36.3461 O   0  0  0  0  0  0  0  0  0  0  0  0
   -0.7894  -18.6507   37.0919 O   0  0  0  0  0  0  0  0  0  0  0  0
   -1.3765  -18.4506   38.3137 O   0  0  0  0  0  0  0  0  0  0  0  0
   -1.0153  -19.5394   39.0583 O   0  0  0  0  0  0  0  0  0  0  0  0
   -1.5995  -19.3468   40.2843 O   0  0  0  0  0  0  0  0  0  0  0  0
   -1.2366  -20.4395   41.0301 O   0  0  0  0  0  0  0  0  0  0  0  0
   -1.8192  -20.2520   42.2597 O   0  0  0  0  0  0  0  0  0  0  0  0
   -1.4584  -21.3470   43.0147 O   0  0  0  0  0  0  0  0  0  0  0  0
   -2.0453  -21.1535   44.2465 O   0  0  0  0  0  0  0  0  0  0  0  0
   -1.6957  -22.2430   45.0220 O   0  0  0  0  0  0  0  0  0  0  0  0
   -2.2909  -22.0370   46.2559 O   0  0  0  0  0  0  0  0  0  0  0  0
   -1.9490  -23.1234   47.0476 O   0  0  0  0  0  0  0  0  0  0  0  0
   -2.5463  -22.9231   48.2957 O   0  0  0  0  0  0  0  0  0  0  0  0
   -2.1352  -24.0606   48.9786 C   0  0  0  0  0  0  0  0  0  0  0  0
   -2.7605  -23.8669   50.3100 C   0  0  0  0  0  0  0  0  0  0  0  0
   -2.3903  -25.0409   51.1565 C   0  0  0  0  0  0  0  0  0  0  0  0
   -3.0208  -24.8565   52.5093 C   0  0  0  0  0  0  0  0  0  0  0  0
   -2.6541  -26.0365   53.3742 C   0  0  0  0  0  0  0  0  0  0  0  0
   -3.2824  -25.8674   54.7382 C   0  0  0  0  0  0  0  0  0  0  0  0
   -2.9157  -27.0485   55.6110 C   0  0  0  0  0  0  0  0  0  0  0  0
   -3.5449  -26.8846   56.9793 C   0  0  0  0  0  0  0  0  0  0  0  0
   -3.1773  -28.0654   57.8557 C   0  0  0  0  0  0  0  0  0  0  0  0
   -3.8046  -27.9021   59.2263 C   0  0  0  0  0  0  0  0  0  0  0  0
   -3.4355  -29.0821   60.1043 C   0  0  0  0  0  0  0  0  0  0  0  0
   -4.0645  -28.9200   61.4747 C   0  0  0  0  0  0  0  0  0  0  0  0
   -3.6972  -30.1010   62.3523 C   0  0  0  0  0  0  0  0  0  0  0  0
   -4.3249  -29.9377   63.7233 C   0  0  0  0  0  0  0  0  0  0  0  0
   -3.9577  -31.1186   64.6012 C   0  0  0  0  0  0  0  0  0  0  0  0
   -4.5867  -30.9563   65.9717 C   0  0  0  0  0  0  0  0  0  0  0  0
   -4.2179  -32.1363   66.8503 C   0  0  0  0  0  0  0  0  0  0  0  0
   -4.8486  -31.9750   68.2202 C   0  0  0  0  0  0  0  0  0  0  0  0
   -4.4815  -33.1561   69.0981 C   0  0  0  0  0  0  0  0  0  0  0  0
   -5.1105  -32.9942   70.4688 C   0  0  0  0  0  0  0  0  0  0  0  0
   -4.7433  -34.1754   71.3470 C   0  0  0  0  0  0  0  0  0  0  0  0
   -5.3707  -34.0127   72.7188 C   0  0  0  0  0  0  0  0  0  0  0  0
   -5.0028  -35.1927   73.5996 C   0  0  0  0  0  0  0  0  0  0  0  0
   -5.6307  -35.0304   74.9734 C   0  0  0  0  0  0  0  0  0  0  0  0
   -5.2638  -36.2108   75.8574 C   0  0  0  0  0  0  0  0  0  0  0  0
   -5.8896  -36.0593   77.2362 C   0  0  0  0  0  0  0  0  0  0  0  0
   -5.5211  -37.2386   78.1146 C   0  0  0  0  0  0  0  0  0  0  0  0
   -2.7592   -4.8094    1.5085 H   0  0  0  0  0  0  0  0  0  0  0  0
   -1.6559   -3.8320    2.5063 H   0  0  0  0  0  0  0  0  0  0  0  0
   -2.0374   -5.5005    2.9775 H   0  0  0  0  0  0  0  0  0  0  0  0
   -0.4881   -4.6983    0.4216 H   0  0  0  0  0  0  0  0  0  0  0  0
   -0.6205   -7.5286    0.9080 H   0  0  0  0  0  0  0  0  0  0  0  0
    0.7115   -4.5531    3.6911 H   0  0  0  0  0  0  0  0  0  0  0  0
    0.8835   -3.7457    2.1237 H   0  0  0  0  0  0  0  0  0  0  0  0
    2.7841   -2.5782    2.8834 H   0  0  0  0  0  0  0  0  0  0  0  0
    4.1332   -3.4832    3.5381 H   0  0  0  0  0  0  0  0  0  0  0  0
    3.9159   -4.4693    5.7230 H   0  0  0  0  0  0  0  0  0  0  0  0
    2.4537   -5.3391    5.1743 H   0  0  0  0  0  0  0  0  0  0  0  0
   -1.0394  -24.0892   49.0219 H   0  0  0  0  0  0  0  0  0  0  0  0
   -2.5027  -24.9551   48.4607 H   0  0  0  0  0  0  0  0  0  0  0  0
   -3.8480  -23.7674   50.1929 H   0  0  0  0  0  0  0  0  0  0  0  0
   -2.4141  -22.9188   50.7429 H   0  0  0  0  0  0  0  0  0  0  0  0
   -1.2985  -25.1091   51.2387 H   0  0  0  0  0  0  0  0  0  0  0  0
   -2.7425  -25.9655   50.6826 H   0  0  0  0  0  0  0  0  0  0  0  0
   -4.1102  -24.7771   52.4060 H   0  0  0  0  0  0  0  0  0  0  0  0
   -2.6675  -23.9215   52.9618 H   0  0  0  0  0  0  0  0  0  0  0  0
   -1.5630  -26.1082   53.4628 H   0  0  0  0  0  0  0  0  0  0  0  0
   -3.0041  -26.9646   52.9055 H   0  0  0  0  0  0  0  0  0  0  0  0
   -4.3725  -25.7930   54.6404 H   0  0  0  0  0  0  0  0  0  0  0  0
   -2.9324  -24.9346   55.1973 H   0  0  0  0  0  0  0  0  0  0  0  0
   -1.8249  -27.1197   55.7041 H   0  0  0  0  0  0  0  0  0  0  0  0
   -3.2634  -27.9792   55.1457 H   0  0  0  0  0  0  0  0  0  0  0  0
   -4.6354  -26.8133   56.8832 H   0  0  0  0  0  0  0  0  0  0  0  0
   -3.1979  -25.9518   57.4409 H   0  0  0  0  0  0  0  0  0  0  0  0
   -2.0866  -28.1366   57.9488 H   0  0  0  0  0  0  0  0  0  0  0  0
   -3.5252  -28.9971   57.3928 H   0  0  0  0  0  0  0  0  0  0  0  0
   -4.8953  -27.8319   59.1323 H   0  0  0  0  0  0  0  0  0  0  0  0
   -3.4576  -26.9692   59.6877 H   0  0  0  0  0  0  0  0  0  0  0  0
   -2.3448  -29.1512   60.1990 H   0  0  0  0  0  0  0  0  0  0  0  0
   -3.7812  -30.0149   59.6419 H   0  0  0  0  0  0  0  0  0  0  0  0
   -5.1551  -28.8497   61.3797 H   0  0  0  0  0  0  0  0  0  0  0  0
   -3.7181  -27.9876   61.9373 H   0  0  0  0  0  0  0  0  0  0  0  0
   -2.6065  -30.1732   62.4463 H   0  0  0  0  0  0  0  0  0  0  0  0
   -4.0454  -31.0329   61.8899 H   0  0  0  0  0  0  0  0  0  0  0  0
   -5.4155  -29.8661   63.6292 H   0  0  0  0  0  0  0  0  0  0  0  0
   -3.9772  -29.0055   64.1855 H   0  0  0  0  0  0  0  0  0  0  0  0
   -2.8671  -31.1894   64.6960 H   0  0  0  0  0  0  0  0  0  0  0  0
   -4.3046  -32.0507   64.1384 H   0  0  0  0  0  0  0  0  0  0  0  0
   -5.6773  -30.8871   65.8766 H   0  0  0  0  0  0  0  0  0  0  0  0
   -4.2410  -30.0234   66.4338 H   0  0  0  0  0  0  0  0  0  0  0  0
   -3.1273  -32.2047   66.9464 H   0  0  0  0  0  0  0  0  0  0  0  0
   -4.5623  -33.0693   66.3874 H   0  0  0  0  0  0  0  0  0  0  0  0
   -5.9392  -31.9051   68.1241 H   0  0  0  0  0  0  0  0  0  0  0  0
   -4.5030  -31.0426   68.6835 H   0  0  0  0  0  0  0  0  0  0  0  0
   -3.3909  -33.2267   69.1930 H   0  0  0  0  0  0  0  0  0  0  0  0
   -4.8282  -34.0882   68.6351 H   0  0  0  0  0  0  0  0  0  0  0  0
   -6.2010  -32.9234   70.3737 H   0  0  0  0  0  0  0  0  0  0  0  0
   -4.7636  -32.0620   70.9314 H   0  0  0  0  0  0  0  0  0  0  0  0
   -3.6526  -34.2468   71.4403 H   0  0  0  0  0  0  0  0  0  0  0  0
   -5.0912  -35.1073   70.8844 H   0  0  0  0  0  0  0  0  0  0  0  0
   -6.4613  -33.9421   72.6242 H   0  0  0  0  0  0  0  0  0  0  0  0
   -5.0236  -33.0795   73.1794 H   0  0  0  0  0  0  0  0  0  0  0  0
   -3.9118  -35.2625   73.6919 H   0  0  0  0  0  0  0  0  0  0  0  0
   -5.3493  -36.1250   73.1368 H   0  0  0  0  0  0  0  0  0  0  0  0
   -6.7210  -34.9592   74.8768 H   0  0  0  0  0  0  0  0  0  0  0  0
   -5.2833  -34.0965   75.4321 H   0  0  0  0  0  0  0  0  0  0  0  0
   -4.1725  -36.2789   75.9475 H   0  0  0  0  0  0  0  0  0  0  0  0
   -5.6081  -37.1421   75.3909 H   0  0  0  0  0  0  0  0  0  0  0  0
   -6.9801  -35.9930   77.1460 H   0  0  0  0  0  0  0  0  0  0  0  0
   -5.5440  -35.1294   77.7029 H   0  0  0  0  0  0  0  0  0  0  0  0
   -5.8778  -38.1751   77.6738 H   0  0  0  0  0  0  0  0  0  0  0  0
   -5.9709  -37.1292   79.1046 H   0  0  0  0  0  0  0  0  0  0  0  0
   -4.4350  -37.3076   78.2333 H   0  0  0  0  0  0  0  0  0  0  0  0
  1  2  1  0  0  0  0
  1 80  1  0  0  0  0
  1 81  1  0  0  0  0
  1 82  1  0  0  0  0
  2  3  1  0  0  0  0
  2  4  1  0  0  0  0
  2 83  1  0  0  0  0
  3  4  2  0  0  0  0
  3 84  1  0  0  0  0
  4  5  1  0  0  0  0
  5  6  1  0  0  0  0
  5 85  1  0  0  0  0
  5 86  1  0  0  0  0
  6  7  1  0  0  0  0
  7  8  1  0  0  0  0
  7 87  1  0  0  0  0
  7 88  1  0  0  0  0
  8  9  1  0  0  0  0
  9 10  1  0  0  0  0
  9 89  1  0  0  0  0
  9 90  1  0  0  0  0
 10 11  1  0  0  0  0
 11 12  1  0  0  0  0
 12 13  1  0  0  0  0
 13 14  1  0  0  0  0
 14 15  1  0  0  0  0
 15 16  1  0  0  0  0
 16 17  1  0  0  0  0
 17 18  1  0  0  0  0
 18 19  1  0  0  0  0
 19 20  1  0  0  0  0
 20 21  1  0  0  0  0
 21 22  1  0  0  0  0
 22 23  1  0  0  0  0
 23 24  1  0  0  0  0
 24 25  1  0  0  0  0
 25 26  1  0  0  0  0
 26 27  1  0  0  0  0
 27 28  1  0  0  0  0
 28 29  1  0  0  0  0
 29 30  1  0  0  0  0
 30 31  1  0  0  0  0
 31 32  1  0  0  0  0
 32 33  1  0  0  0  0
 33 34  1  0  0  0  0
 34 35  1  0  0  0  0
 35 36  1  0  0  0  0
 36 37  1  0  0  0  0
 37 38  1  0  0  0  0
 38 39  1  0  0  0  0
 39 40  1  0  0  0  0
 40 41  1  0  0  0  0
 41 42  1  0  0  0  0
 42 43  1  0  0  0  0
 43 44  1  0  0  0  0
 44 45  1  0  0  0  0
 45 46  1  0  0  0  0
 46 47  1  0  0  0  0
 47 48  1  0  0  0  0
 48 49  1  0  0  0  0
 49 50  1  0  0  0  0
 50 51  1  0  0  0  0
 51 52  1  0  0  0  0
 52 53  1  0  0  0  0
 53 54  1  0  0  0  0
 53 91  1  0  0  0  0
 53 92  1  0  0  0  0
 54 55  1  0  0  0  0
 54 93  1  0  0  0  0
 54 94  1  0  0  0  0
 55 56  1  0  0  0  0
 55 95  1  0  0  0  0
 55 96  1  0  0  0  0
 56 57  1  0  0  0  0
 56 97  1  0  0  0  0
 56 98  1  0  0  0  0
 57 58  1  0  0  0  0
 57 99  1  0  0  0  0
 57100  1  0  0  0  0
 58 59  1  0  0  0  0
 58101  1  0  0  0  0
 58102  1  0  0  0  0
 59 60  1  0  0  0  0
 59103  1  0  0  0  0
 59104  1  0  0  0  0
 60 61  1  0  0  0  0
 60105  1  0  0  0  0
 60106  1  0  0  0  0
 61 62  1  0  0  0  0
 61107  1  0  0  0  0
 61108  1  0  0  0  0
 62 63  1  0  0  0  0
 62109  1  0  0  0  0
 62110  1  0  0  0  0
 63 64  1  0  0  0  0
 63111  1  0  0  0  0
 63112  1  0  0  0  0
 64 65  1  0  0  0  0
 64113  1  0  0  0  0
 64114  1  0  0  0  0
 65 66  1  0  0  0  0
 65115  1  0  0  0  0
 65116  1  0  0  0  0
 66 67  1  0  0  0  0
 66117  1  0  0  0  0
 66118  1  0  0  0  0
 67 68  1  0  0  0  0
 67119  1  0  0  0  0
 67120  1  0  0  0  0
 68 69  1  0  0  0  0
 68121  1  0  0  0  0
 68122  1  0  0  0  0
 69 70  1  0  0  0  0
 69123  1  0  0  0  0
 69124  1  0  0  0  0
 70 71  1  0  0  0  0
 70125  1  0  0  0  0
 70126  1  0  0  0  0
 71 72  1  0  0  0  0
 71127  1  0  0  0  0
 71128  1  0  0  0  0
 72 73  1  0  0  0  0
 72129  1  0  0  0  0
 72130  1  0  0  0  0
 73 74  1  0  0  0  0
 73131  1  0  0  0  0
 73132  1  0  0  0  0
 74 75  1  0  0  0  0
 74133  1  0  0  0  0
 74134  1  0  0  0  0
 75 76  1  0  0  0  0
 75135  1  0  0  0  0
 75136  1  0  0  0  0
 76 77  1  0  0  0  0
 76137  1  0  0  0  0
 76138  1  0  0  0  0
 77 78  1  0  0  0  0
 77139  1  0  0  0  0
 77140  1  0  0  0  0
 78 79  1  0  0  0  0
 78141  1  0  0  0  0
 78142  1  0  0  0  0
 79143  1  0  0  0  0
 79144  1  0  0  0  0
 79145  1  0  0  0  0
M  END
$$$$
