
 OpenBabel04232216463D

 56 56  0  0  0  0  0  0  0  0999 V2000
    5.5204   -1.3394    2.2815 C   0  0  0  0  0  0  0  0  0  0  0  0
    6.4547   -0.1968    2.6775 C   0  0  0  0  0  0  0  0  0  0  0  0
    5.7967    1.0912    2.4979 C   0  0  0  0  0  0  0  0  0  0  0  0
    5.5050    1.6732    1.3165 C   0  0  0  0  0  0  0  0  0  0  0  0
    5.8901    1.2219    0.0728 N   0  0  0  0  0  0  0  0  0  0  0  0
    4.9943    3.0570    1.3828 C   0  0  0  0  0  0  0  0  0  0  0  0
    3.6475    3.2257    2.0517 C   0  0  0  0  0  0  0  0  0  0  0  0
    5.9298    4.0382    1.4918 C   0  0  0  0  0  0  0  0  0  0  0  0
    6.9126    3.8768    2.6116 C   0  0  0  0  0  0  0  0  0  0  0  0
    6.3048    3.9467    4.0174 C   0  0  0  0  0  0  0  0  0  0  0  0
    5.9574    5.2841    4.6513 C   0  0  0  0  0  0  0  0  0  0  0  0
    7.0724    6.3003    4.8678 C   0  0  0  0  0  0  0  0  0  0  0  0
    6.4326    7.5047    5.5552 C   0  0  0  0  0  0  0  0  0  0  0  0
    7.3739    8.6729    5.7855 C   0  0  0  0  0  0  0  0  0  0  0  0
    6.6088    9.7941    6.4746 C   0  0  0  0  0  0  0  0  0  0  0  0
    8.1497    3.3118    2.4356 C   0  0  0  0  0  0  0  0  0  0  0  0
    8.7632    2.9283    1.0863 C   0  0  0  0  0  0  0  0  0  0  0  0
    8.9192    2.8743    3.5035 N   0  0  0  0  0  0  0  0  0  0  0  0
    9.4471    3.8473    4.4928 C   0  0  0  0  0  0  0  0  0  0  0  0
    9.0659    1.5367    3.8380 C   0  0  0  0  0  0  0  0  0  0  0  0
    8.6159    0.2681    3.7705 C   0  0  0  0  0  0  0  0  0  0  0  0
    9.4671   -0.5800    4.7259 C   0  0  0  0  0  0  0  0  0  0  0  0
    7.6128   -0.4898    3.1942 N   0  0  0  0  0  0  0  0  0  0  0  0
    4.5861   -1.2351    2.8542 H   0  0  0  0  0  0  0  0  0  0  0  0
    5.9362   -2.3248    2.4865 H   0  0  0  0  0  0  0  0  0  0  0  0
    5.2519   -1.2699    1.2222 H   0  0  0  0  0  0  0  0  0  0  0  0
    5.5117    1.5080    3.4490 H   0  0  0  0  0  0  0  0  0  0  0  0
    5.0962    1.0550   -0.5372 H   0  0  0  0  0  0  0  0  0  0  0  0
    6.5053    0.4105    0.1058 H   0  0  0  0  0  0  0  0  0  0  0  0
    2.8493    2.8130    1.4299 H   0  0  0  0  0  0  0  0  0  0  0  0
    3.4257    4.2849    2.2242 H   0  0  0  0  0  0  0  0  0  0  0  0
    3.5926    2.7236    3.0243 H   0  0  0  0  0  0  0  0  0  0  0  0
    6.5431    4.1178    0.5793 H   0  0  0  0  0  0  0  0  0  0  0  0
    6.8603    3.3426    4.7369 H   0  0  0  0  0  0  0  0  0  0  0  0
    5.3420    3.4294    4.0110 H   0  0  0  0  0  0  0  0  0  0  0  0
    5.5195    5.0536    5.6356 H   0  0  0  0  0  0  0  0  0  0  0  0
    5.1559    5.7456    4.0639 H   0  0  0  0  0  0  0  0  0  0  0  0
    7.5373    6.5818    3.9160 H   0  0  0  0  0  0  0  0  0  0  0  0
    7.8532    5.9029    5.5237 H   0  0  0  0  0  0  0  0  0  0  0  0
    6.0355    7.1782    6.5244 H   0  0  0  0  0  0  0  0  0  0  0  0
    5.5789    7.8488    4.9593 H   0  0  0  0  0  0  0  0  0  0  0  0
    7.7760    9.0317    4.8315 H   0  0  0  0  0  0  0  0  0  0  0  0
    8.2248    8.3601    6.4000 H   0  0  0  0  0  0  0  0  0  0  0  0
    5.7446   10.1001    5.8720 H   0  0  0  0  0  0  0  0  0  0  0  0
    7.2464   10.6681    6.6293 H   0  0  0  0  0  0  0  0  0  0  0  0
    6.2325    9.4636    7.4489 H   0  0  0  0  0  0  0  0  0  0  0  0
    8.0501    2.5361    0.3681 H   0  0  0  0  0  0  0  0  0  0  0  0
    9.5128    2.1332    1.2125 H   0  0  0  0  0  0  0  0  0  0  0  0
    9.2928    3.7757    0.6404 H   0  0  0  0  0  0  0  0  0  0  0  0
    8.7126    4.0112    5.2874 H   0  0  0  0  0  0  0  0  0  0  0  0
    9.7258    4.7990    4.0392 H   0  0  0  0  0  0  0  0  0  0  0  0
   10.3301    3.4614    5.0176 H   0  0  0  0  0  0  0  0  0  0  0  0
   10.0132    1.5840    4.3745 H   0  0  0  0  0  0  0  0  0  0  0  0
    9.0980   -0.4135    5.7450 H   0  0  0  0  0  0  0  0  0  0  0  0
   10.5293   -0.2859    4.7169 H   0  0  0  0  0  0  0  0  0  0  0  0
    9.4335   -1.6427    4.4910 H   0  0  0  0  0  0  0  0  0  0  0  0
  1  2  1  0  0  0  0
  1 24  1  0  0  0  0
  1 25  1  0  0  0  0
  1 26  1  0  0  0  0
  2  3  1  0  0  0  0
  2 23  2  3  0  0  0
  3  4  2  3  0  0  0
  3 27  1  0  0  0  0
  4  5  1  0  0  0  0
  4  6  1  0  0  0  0
  5 28  1  0  0  0  0
  5 29  1  0  0  0  0
  6  7  1  0  0  0  0
  6  8  2  3  0  0  0
  7 30  1  0  0  0  0
  7 31  1  0  0  0  0
  7 32  1  0  0  0  0
  8  9  1  0  0  0  0
  8 33  1  0  0  0  0
  9 10  1  0  0  0  0
  9 16  2  3  0  0  0
 10 11  1  0  0  0  0
 10 34  1  0  0  0  0
 10 35  1  0  0  0  0
 11 12  1  0  0  0  0
 11 36  1  0  0  0  0
 11 37  1  0  0  0  0
 12 13  1  0  0  0  0
 12 38  1  0  0  0  0
 12 39  1  0  0  0  0
 13 14  1  0  0  0  0
 13 40  1  0  0  0  0
 13 41  1  0  0  0  0
 14 15  1  0  0  0  0
 14 42  1  0  0  0  0
 14 43  1  0  0  0  0
 15 44  1  0  0  0  0
 15 45  1  0  0  0  0
 15 46  1  0  0  0  0
 16 17  1  0  0  0  0
 16 18  1  0  0  0  0
 17 47  1  0  0  0  0
 17 48  1  0  0  0  0
 17 49  1  0  0  0  0
 18 19  1  0  0  0  0
 18 20  1  0  0  0  0
 19 50  1  0  0  0  0
 19 51  1  0  0  0  0
 19 52  1  0  0  0  0
 20 21  2  3  0  0  0
 20 53  1  0  0  0  0
 21 22  1  0  0  0  0
 21 23  1  0  0  0  0
 22 54  1  0  0  0  0
 22 55  1  0  0  0  0
 22 56  1  0  0  0  0
M  END
$$$$
