
 OpenBabel04232216463D

 52 54  0  0  0  0  0  0  0  0999 V2000
    8.6324    3.9311    2.2506 C   0  0  0  0  0  0  0  0  0  0  0  0
    7.7911    2.9650    3.0537 C   0  0  0  0  0  0  0  0  0  0  0  0
    6.8685    2.2775    2.1628 C   0  0  0  0  0  0  0  0  0  0  0  0
    6.3685    1.0903    2.5244 C   0  0  0  0  0  0  0  0  0  0  0  0
    7.4186    0.0163    2.8397 C   0  0  0  0  0  0  0  0  0  0  0  0
    5.0035    1.0013    2.9922 N   0  0  0  0  0  0  0  0  0  0  0  0
    4.1851    2.2940    2.9970 C   0  0  0  0  0  0  0  0  0  0  0  0
    2.6701    2.1218    2.8455 C   0  0  0  0  0  0  0  0  0  0  0  0
    2.0012    3.4281    2.9431 N   0  0  0  0  0  0  0  0  0  0  0  0
    0.7806    3.7467    2.3669 C   0  0  0  0  0  0  0  0  0  0  0  0
    0.2485    5.0916    2.7665 C   0  0  0  0  0  0  0  0  0  0  0  0
   -0.4105    5.9412    1.9699 C   0  0  0  0  0  0  0  0  0  0  0  0
   -1.3673    6.8023    2.5884 C   0  0  0  0  0  0  0  0  0  0  0  0
   -1.2844    7.9852    3.2930 C   0  0  0  0  0  0  0  0  0  0  0  0
   -2.6084    8.4356    3.5162 C   0  0  0  0  0  0  0  0  0  0  0  0
   -3.4628    7.5173    2.9395 C   0  0  0  0  0  0  0  0  0  0  0  0
   -2.7203    6.4311    2.5224 N   0  0  0  0  0  0  0  0  0  0  0  0
   -3.2065    5.2028    2.0404 C   0  0  0  0  0  0  0  0  0  0  0  0
   -2.5781    4.0444    2.3391 C   0  0  0  0  0  0  0  0  0  0  0  0
   -2.1253    3.2837    1.1620 C   0  0  0  0  0  0  0  0  0  0  0  0
   -0.9385    2.8743    0.8435 N   0  0  0  0  0  0  0  0  0  0  0  0
    0.1913    2.8226    1.6566 N   0  0  0  0  0  0  0  0  0  0  0  0
    4.8624    0.2301    4.1894 C   0  0  0  0  0  0  0  0  0  0  0  0
    5.0201    0.8712    5.3615 C   0  0  0  0  0  0  0  0  0  0  0  0
    6.2978    1.3138    5.9093 C   0  0  0  0  0  0  0  0  0  0  0  0
    7.3297    2.0727    5.5078 C   0  0  0  0  0  0  0  0  0  0  0  0
    7.8609    2.8859    4.4064 C   0  0  0  0  0  0  0  0  0  0  0  0
    8.0028    4.7080    1.8017 H   0  0  0  0  0  0  0  0  0  0  0  0
    9.1386    3.3975    1.4360 H   0  0  0  0  0  0  0  0  0  0  0  0
    9.4024    4.4210    2.8515 H   0  0  0  0  0  0  0  0  0  0  0  0
    6.2672    3.0055    1.6267 H   0  0  0  0  0  0  0  0  0  0  0  0
    8.3640    0.2304    2.3206 H   0  0  0  0  0  0  0  0  0  0  0  0
    7.1003   -0.9715    2.4976 H   0  0  0  0  0  0  0  0  0  0  0  0
    7.6670   -0.0485    3.9021 H   0  0  0  0  0  0  0  0  0  0  0  0
    4.4702    2.9633    2.1849 H   0  0  0  0  0  0  0  0  0  0  0  0
    4.4037    2.8621    3.9151 H   0  0  0  0  0  0  0  0  0  0  0  0
    2.2690    1.4676    3.6243 H   0  0  0  0  0  0  0  0  0  0  0  0
    2.4781    1.6603    1.8716 H   0  0  0  0  0  0  0  0  0  0  0  0
    2.5115    4.1697    3.4158 H   0  0  0  0  0  0  0  0  0  0  0  0
    0.2567    5.2280    3.8413 H   0  0  0  0  0  0  0  0  0  0  0  0
   -0.4765    5.7512    0.8993 H   0  0  0  0  0  0  0  0  0  0  0  0
   -0.3712    8.4932    3.5754 H   0  0  0  0  0  0  0  0  0  0  0  0
   -2.9054    9.3436    4.0254 H   0  0  0  0  0  0  0  0  0  0  0  0
   -4.5434    7.4997    2.8888 H   0  0  0  0  0  0  0  0  0  0  0  0
   -3.8967    5.3167    1.2072 H   0  0  0  0  0  0  0  0  0  0  0  0
   -1.9263    3.9609    3.1983 H   0  0  0  0  0  0  0  0  0  0  0  0
   -2.9008    3.1324    0.3908 H   0  0  0  0  0  0  0  0  0  0  0  0
    5.4802   -0.6541    4.0346 H   0  0  0  0  0  0  0  0  0  0  0  0
    4.1975    1.4769    5.7217 H   0  0  0  0  0  0  0  0  0  0  0  0
    6.3826    0.9273    6.9309 H   0  0  0  0  0  0  0  0  0  0  0  0
    8.0676    2.1610    6.3204 H   0  0  0  0  0  0  0  0  0  0  0  0
    8.5977    3.5828    4.8283 H   0  0  0  0  0  0  0  0  0  0  0  0
  1  2  1  0  0  0  0
  1 28  1  0  0  0  0
  1 29  1  0  0  0  0
  1 30  1  0  0  0  0
  2  3  1  0  0  0  0
  2 27  2  0  0  0  0
  3  4  2  0  0  0  0
  3 31  1  0  0  0  0
  4  5  1  0  0  0  0
  4  6  1  0  0  0  0
  5 32  1  0  0  0  0
  5 33  1  0  0  0  0
  5 34  1  0  0  0  0
  6  7  1  0  0  0  0
  6 23  1  0  0  0  0
  7  8  1  0  0  0  0
  7 35  1  0  0  0  0
  7 36  1  0  0  0  0
  8  9  1  0  0  0  0
  8 37  1  0  0  0  0
  8 38  1  0  0  0  0
  9 10  1  0  0  0  0
  9 39  1  0  0  0  0
 10 11  1  0  0  0  0
 10 22  2  0  0  0  0
 11 12  2  0  0  0  0
 11 40  1  0  0  0  0
 12 13  1  0  0  0  0
 12 41  1  0  0  0  0
 13 14  2  0  0  0  0
 13 17  1  0  0  0  0
 14 15  1  0  0  0  0
 14 42  1  0  0  0  0
 15 16  2  0  0  0  0
 15 43  1  0  0  0  0
 16 17  1  0  0  0  0
 16 44  1  0  0  0  0
 17 18  1  0  0  0  0
 18 19  2  0  0  0  0
 18 45  1  0  0  0  0
 19 20  1  0  0  0  0
 19 46  1  0  0  0  0
 20 21  2  0  0  0  0
 20 47  1  0  0  0  0
 21 22  1  0  0  0  0
 23 24  2  0  0  0  0
 23 48  1  0  0  0  0
 24 25  1  0  0  0  0
 24 49  1  0  0  0  0
 25 26  2  0  0  0  0
 25 50  1  0  0  0  0
 26 27  1  0  0  0  0
 26 51  1  0  0  0  0
 27 52  1  0  0  0  0
M  END
$$$$
