
 OpenBabel04232216553D

 44 45  0  0  0  0  0  0  0  0999 V2000
    4.6828    3.3812    1.6246 C   0  0  0  0  0  0  0  0  0  0  0  0
    4.7845    4.0824    0.3431 N   0  0  0  0  0  0  0  0  0  0  0  0
    3.4709    4.2686   -0.0803 C   0  0  0  0  0  0  0  0  0  0  0  0
    2.6808    4.9570    0.5678 O   0  0  0  0  0  0  0  0  0  0  0  0
    3.0012    3.5157   -1.1145 N   0  0  0  0  0  0  0  0  0  0  0  0
    2.8313    4.3183   -2.1177 C   0  0  0  0  0  0  0  0  0  0  0  0
    1.4450    4.9081   -2.4107 C   0  0  0  0  0  0  0  0  0  0  0  0
    0.3204    4.1851   -1.9652 O   0  0  0  0  0  0  0  0  0  0  0  0
    4.0109    5.0838   -2.6305 C   0  0  0  0  0  0  0  0  0  0  0  0
    4.0657    6.4833   -2.1044 C   0  0  0  0  0  0  0  0  0  0  0  0
    5.0605    4.2492   -2.6838 C   0  0  0  0  0  0  0  0  0  0  0  0
    6.2415    4.5545   -1.8054 C   0  0  0  0  0  0  0  0  0  0  0  0
    7.2586    4.7648   -2.5970 N   0  0  0  0  0  0  0  0  0  0  0  0
    8.4394    5.0136   -2.0301 N   0  0  0  0  0  0  0  0  0  0  0  0
    8.7912    6.2746   -2.0197 C   0  0  0  0  0  0  0  0  0  0  0  0
    8.0585    7.4640   -2.6151 C   0  0  0  0  0  0  0  0  0  0  0  0
    9.8104    6.5556   -1.1282 N   0  0  0  0  0  0  0  0  0  0  0  0
   11.0450    5.7399   -1.3569 C   0  0  0  0  0  0  0  0  0  0  0  0
   12.3302    6.5160   -1.6456 C   0  0  0  0  0  0  0  0  0  0  0  0
    9.2781    6.5907    0.1977 C   0  0  0  0  0  0  0  0  0  0  0  0
    8.1133    6.1950    0.7268 C   0  0  0  0  0  0  0  0  0  0  0  0
    6.7504    5.5466    0.4881 C   0  0  0  0  0  0  0  0  0  0  0  0
    6.0201    4.6439   -0.2495 C   0  0  0  0  0  0  0  0  0  0  0  0
    5.5205    2.7110    1.8070 H   0  0  0  0  0  0  0  0  0  0  0  0
    3.7899    2.7169    1.5836 H   0  0  0  0  0  0  0  0  0  0  0  0
    4.4687    4.0524    2.4656 H   0  0  0  0  0  0  0  0  0  0  0  0
    1.3550    5.0974   -3.4794 H   0  0  0  0  0  0  0  0  0  0  0  0
    1.4191    5.8791   -1.8950 H   0  0  0  0  0  0  0  0  0  0  0  0
    0.3152    4.2681   -0.9922 H   0  0  0  0  0  0  0  0  0  0  0  0
    3.7646    6.5404   -1.0560 H   0  0  0  0  0  0  0  0  0  0  0  0
    3.4025    7.1193   -2.6906 H   0  0  0  0  0  0  0  0  0  0  0  0
    5.0711    6.8891   -2.1627 H   0  0  0  0  0  0  0  0  0  0  0  0
    5.4492    4.1533   -3.7064 H   0  0  0  0  0  0  0  0  0  0  0  0
    7.0030    7.2586   -2.7775 H   0  0  0  0  0  0  0  0  0  0  0  0
    8.5154    7.7746   -3.5577 H   0  0  0  0  0  0  0  0  0  0  0  0
    8.1152    8.3231   -1.9303 H   0  0  0  0  0  0  0  0  0  0  0  0
   10.9109    5.0858   -2.2340 H   0  0  0  0  0  0  0  0  0  0  0  0
   11.2254    5.0761   -0.4931 H   0  0  0  0  0  0  0  0  0  0  0  0
   12.3553    6.9060   -2.6714 H   0  0  0  0  0  0  0  0  0  0  0  0
   13.1851    5.8258   -1.5694 H   0  0  0  0  0  0  0  0  0  0  0  0
   12.5069    7.3398   -0.9528 H   0  0  0  0  0  0  0  0  0  0  0  0
   10.0240    7.0622    0.8363 H   0  0  0  0  0  0  0  0  0  0  0  0
    8.0839    6.4906    1.7781 H   0  0  0  0  0  0  0  0  0  0  0  0
    6.0652    6.1259    1.1170 H   0  0  0  0  0  0  0  0  0  0  0  0
  1  2  1  0  0  0  0
  1 24  1  0  0  0  0
  1 25  1  0  0  0  0
  1 26  1  0  0  0  0
  2  3  1  0  0  0  0
  2 23  1  0  0  0  0
  3  4  2  0  0  0  0
  3  5  1  0  0  0  0
  5  6  2  0  0  0  0
  6  7  1  0  0  0  0
  6  9  1  0  0  0  0
  7  8  1  0  0  0  0
  7 27  1  0  0  0  0
  7 28  1  0  0  0  0
  8 29  1  0  0  0  0
  9 10  1  0  0  0  0
  9 11  2  0  0  0  0
 10 30  1  0  0  0  0
 10 31  1  0  0  0  0
 10 32  1  0  0  0  0
 11 12  1  0  0  0  0
 11 33  1  0  0  0  0
 12 13  2  0  0  0  0
 12 23  1  0  0  0  0
 13 14  1  0  0  0  0
 14 15  2  0  0  0  0
 15 16  1  0  0  0  0
 15 17  1  0  0  0  0
 16 34  1  0  0  0  0
 16 35  1  0  0  0  0
 16 36  1  0  0  0  0
 17 18  1  0  0  0  0
 17 20  1  0  0  0  0
 18 19  1  0  0  0  0
 18 37  1  0  0  0  0
 18 38  1  0  0  0  0
 19 39  1  0  0  0  0
 19 40  1  0  0  0  0
 19 41  1  0  0  0  0
 20 21  2  0  0  0  0
 20 42  1  0  0  0  0
 21 22  1  0  0  0  0
 21 43  1  0  0  0  0
 22 23  2  0  0  0  0
 22 44  1  0  0  0  0
M  END
$$$$
