
 OpenBabel04232216473D

 48 49  0  0  1  0  0  0  0  0999 V2000
   -0.4178   -0.2131    3.8489 C   0  0  0  0  0  0  0  0  0  0  0  0
   -1.6810    0.4519    3.3272 C   0  0  0  0  0  0  0  0  0  0  0  0
   -1.7297    1.8029    2.9746 C   0  0  0  0  0  0  0  0  0  0  0  0
   -2.9544    2.3965    2.5406 C   0  0  0  0  0  0  0  0  0  0  0  0
   -4.1726    1.6871    2.3419 C   0  0  0  0  0  0  0  0  0  0  0  0
   -5.3758    2.2034    1.3435 C   0  0  3  0  0  0  0  0  0  0  0  0
   -4.5974    2.4999    0.0398 C   0  0  0  0  0  0  0  0  0  0  0  0
   -5.4074    2.3317   -1.2210 C   0  0  0  0  0  0  0  0  0  0  0  0
   -6.0489    3.6579   -1.4963 C   0  0  0  0  0  0  0  0  0  0  0  0
   -7.4688    3.5369   -1.9833 C   0  0  0  0  0  0  0  0  0  0  0  0
   -7.8447    4.9218   -2.4425 C   0  0  0  0  0  0  0  0  0  0  0  0
   -7.1099    5.9023   -2.4296 O   0  0  0  0  0  0  0  0  0  0  0  0
   -9.2287    5.0056   -2.7028 N   0  0  0  0  0  0  0  0  0  0  0  0
   -9.8498    6.1757   -2.2290 C   0  0  0  0  0  0  0  0  0  0  0  0
  -10.3810    6.0404   -0.9917 C   0  0  0  0  0  0  0  0  0  0  0  0
   -9.3536    5.8375    0.0900 C   0  0  0  0  0  0  0  0  0  0  0  0
   -9.2456    4.6680    0.8614 C   0  0  0  0  0  0  0  0  0  0  0  0
  -10.6110    4.3486    1.4989 C   0  0  0  0  0  0  0  0  0  0  0  0
   -7.7978    4.2318    1.5726 C   0  0  0  0  0  0  0  0  0  0  0  0
   -6.9507    2.7546    1.8654 C   0  0  0  0  0  0  0  0  0  0  0  0
   -7.5657    1.9254    2.5859 O   0  0  0  0  0  0  0  0  0  0  0  0
   -4.0523    0.3064    2.6421 C   0  0  0  0  0  0  0  0  0  0  0  0
   -2.8468   -0.2952    3.1224 C   0  0  0  0  0  0  0  0  0  0  0  0
    0.4343    0.4780    3.8803 H   0  0  0  0  0  0  0  0  0  0  0  0
   -0.1105   -1.0657    3.2270 H   0  0  0  0  0  0  0  0  0  0  0  0
   -0.5701   -0.5808    4.8715 H   0  0  0  0  0  0  0  0  0  0  0  0
   -0.8255    2.4082    3.0720 H   0  0  0  0  0  0  0  0  0  0  0  0
   -2.8691    3.4417    2.1839 H   0  0  0  0  0  0  0  0  0  0  0  0
   -5.7614    1.2018    1.0680 H   0  0  0  0  0  0  0  0  0  0  0  0
   -3.7839    1.7613   -0.0682 H   0  0  0  0  0  0  0  0  0  0  0  0
   -4.0821    3.4678    0.0758 H   0  0  0  0  0  0  0  0  0  0  0  0
   -4.7413    2.0913   -2.0640 H   0  0  0  0  0  0  0  0  0  0  0  0
   -6.1153    1.5013   -1.1428 H   0  0  0  0  0  0  0  0  0  0  0  0
   -5.4300    4.1951   -2.2244 H   0  0  0  0  0  0  0  0  0  0  0  0
   -6.0410    4.2879   -0.5960 H   0  0  0  0  0  0  0  0  0  0  0  0
   -8.1029    3.1749   -1.1566 H   0  0  0  0  0  0  0  0  0  0  0  0
   -7.5680    2.8275   -2.8081 H   0  0  0  0  0  0  0  0  0  0  0  0
   -9.7428    4.1586   -2.5132 H   0  0  0  0  0  0  0  0  0  0  0  0
   -9.1748    7.0163   -2.3907 H   0  0  0  0  0  0  0  0  0  0  0  0
  -11.2286    5.3515   -0.9436 H   0  0  0  0  0  0  0  0  0  0  0  0
   -9.5167    6.7309    0.7226 H   0  0  0  0  0  0  0  0  0  0  0  0
  -10.9930    3.3619    1.2274 H   0  0  0  0  0  0  0  0  0  0  0  0
  -11.4243    5.0369    1.1723 H   0  0  0  0  0  0  0  0  0  0  0  0
  -10.6224    4.4877    2.5813 H   0  0  0  0  0  0  0  0  0  0  0  0
   -8.0395    4.4990    2.6150 H   0  0  0  0  0  0  0  0  0  0  0  0
   -7.0561    4.9684    1.2576 H   0  0  0  0  0  0  0  0  0  0  0  0
   -4.8734   -0.3693    2.4151 H   0  0  0  0  0  0  0  0  0  0  0  0
   -2.8195   -1.3741    3.2868 H   0  0  0  0  0  0  0  0  0  0  0  0
  1  2  1  0  0  0  0
  1 24  1  0  0  0  0
  1 25  1  0  0  0  0
  1 26  1  0  0  0  0
  2  3  1  0  0  0  0
  2 23  2  0  0  0  0
  3  4  2  0  0  0  0
  3 27  1  0  0  0  0
  4  5  1  0  0  0  0
  4 28  1  0  0  0  0
  5  6  1  0  0  0  0
  5 22  2  0  0  0  0
  6  7  1  0  0  0  0
  6 20  1  0  0  0  0
  6 29  1  0  0  0  0
  7  8  1  0  0  0  0
  7 30  1  0  0  0  0
  7 31  1  0  0  0  0
  8  9  1  0  0  0  0
  8 32  1  0  0  0  0
  8 33  1  0  0  0  0
  9 10  1  0  0  0  0
  9 34  1  0  0  0  0
  9 35  1  0  0  0  0
 10 11  1  0  0  0  0
 10 36  1  0  0  0  0
 10 37  1  0  0  0  0
 11 12  2  0  0  0  0
 11 13  1  0  0  0  0
 13 14  1  0  0  0  0
 13 38  1  0  0  0  0
 14 15  2  3  0  0  0
 14 39  1  0  0  0  0
 15 16  1  0  0  0  0
 15 40  1  0  0  0  0
 16 17  2  3  0  0  0
 16 41  1  0  0  0  0
 17 18  1  0  0  0  0
 17 19  1  0  0  0  0
 18 42  1  0  0  0  0
 18 43  1  0  0  0  0
 18 44  1  0  0  0  0
 19 20  1  0  0  0  0
 19 45  1  0  0  0  0
 19 46  1  0  0  0  0
 20 21  2  0  0  0  0
 22 23  1  0  0  0  0
 22 47  1  0  0  0  0
 23 48  1  0  0  0  0
M  END
$$$$
