
 OpenBabel04232216493D

 71 71  0  0  0  0  0  0  0  0999 V2000
    7.6301   -4.2320   -0.8380 C   0  0  0  0  0  0  0  0  0  0  0  0
    8.7513   -3.7974   -1.9292 C   0  0  0  0  0  0  0  0  0  0  0  0
    8.1462   -2.7069   -2.4951 C   0  0  0  0  0  0  0  0  0  0  0  0
    7.2299   -1.6057   -2.0533 C   0  0  0  0  0  0  0  0  0  0  0  0
    6.1807   -1.1586   -2.8039 C   0  0  0  0  0  0  0  0  0  0  0  0
    5.8301   -1.4477   -4.2578 C   0  0  0  0  0  0  0  0  0  0  0  0
    6.7799   -2.2190   -5.0964 C   0  0  0  0  0  0  0  0  0  0  0  0
    8.0945   -2.0236   -5.1588 C   0  0  0  0  0  0  0  0  0  0  0  0
    8.8261   -3.1953   -5.6273 C   0  0  0  0  0  0  0  0  0  0  0  0
   10.2543   -2.8185   -5.6280 C   0  0  0  0  0  0  0  0  0  0  0  0
   10.8393   -3.7168   -6.6485 C   0  0  0  0  0  0  0  0  0  0  0  0
   12.1573   -3.0910   -6.8148 C   0  0  0  0  0  0  0  0  0  0  0  0
   12.9881   -3.9958   -7.5824 C   0  0  0  0  0  0  0  0  0  0  0  0
   12.6932   -4.6056   -8.6040 O   0  0  0  0  0  0  0  0  0  0  0  0
   14.2697   -4.0221   -6.9981 C   0  0  0  0  0  0  0  0  0  0  0  0
   14.5462   -4.5993   -5.7810 C   0  0  0  0  0  0  0  0  0  0  0  0
   13.6492   -5.0445   -4.6401 C   0  0  0  0  0  0  0  0  0  0  0  0
   12.4472   -5.7246   -4.7192 C   0  0  0  0  0  0  0  0  0  0  0  0
   12.7469   -7.1303   -5.7835 C   0  0  0  0  0  0  0  0  0  0  0  0
   14.1607   -7.2369   -6.8857 C   0  0  0  0  0  0  0  0  0  0  0  0
   15.1330   -8.4117   -7.4494 C   0  0  0  0  0  0  0  0  0  0  0  0
   14.4929   -9.7380   -7.7431 C   0  0  0  0  0  0  0  0  0  0  0  0
   15.3563  -11.0099   -7.9648 C   0  0  0  0  0  0  0  0  0  0  0  0
   14.3080  -12.1224   -7.8833 C   0  0  0  0  0  0  0  0  0  0  0  0
   14.7620  -13.5641   -7.9319 C   0  0  0  0  0  0  0  0  0  0  0  0
   13.5089  -14.4296   -7.7389 C   0  0  0  0  0  0  0  0  0  0  0  0
   13.8419  -15.9030   -7.7572 C   0  0  0  0  0  0  0  0  0  0  0  0
   11.2920   -5.0156   -3.5762 C   0  0  0  0  0  0  0  0  0  0  0  0
    9.9452   -4.8008   -2.8587 C   0  0  0  0  0  0  0  0  0  0  0  0
    6.9176   -4.9935   -1.1822 H   0  0  0  0  0  0  0  0  0  0  0  0
    6.8990   -3.4015   -0.6410 H   0  0  0  0  0  0  0  0  0  0  0  0
    7.9711   -4.3792    0.1887 H   0  0  0  0  0  0  0  0  0  0  0  0
    7.3923   -3.2161   -3.1179 H   0  0  0  0  0  0  0  0  0  0  0  0
    7.2359   -1.1788   -1.0377 H   0  0  0  0  0  0  0  0  0  0  0  0
    5.4599   -0.4150   -2.4167 H   0  0  0  0  0  0  0  0  0  0  0  0
    4.9277   -2.0622   -4.2233 H   0  0  0  0  0  0  0  0  0  0  0  0
    5.6584   -0.5232   -4.8097 H   0  0  0  0  0  0  0  0  0  0  0  0
    6.4005   -3.1467   -5.5329 H   0  0  0  0  0  0  0  0  0  0  0  0
    8.5872   -1.2122   -4.6080 H   0  0  0  0  0  0  0  0  0  0  0  0
    8.4665   -3.4068   -6.6368 H   0  0  0  0  0  0  0  0  0  0  0  0
    8.6527   -4.0996   -5.0262 H   0  0  0  0  0  0  0  0  0  0  0  0
   10.7053   -2.8917   -4.6279 H   0  0  0  0  0  0  0  0  0  0  0  0
   10.3969   -1.7619   -5.8981 H   0  0  0  0  0  0  0  0  0  0  0  0
   10.2891   -3.7039   -7.5917 H   0  0  0  0  0  0  0  0  0  0  0  0
   10.8295   -4.7631   -6.3214 H   0  0  0  0  0  0  0  0  0  0  0  0
   12.5979   -2.9499   -5.8219 H   0  0  0  0  0  0  0  0  0  0  0  0
   12.1253   -2.1127   -7.2850 H   0  0  0  0  0  0  0  0  0  0  0  0
   14.9005   -3.1273   -7.2618 H   0  0  0  0  0  0  0  0  0  0  0  0
   15.6231   -4.7641   -5.6531 H   0  0  0  0  0  0  0  0  0  0  0  0
   14.3987   -5.7434   -4.1829 H   0  0  0  0  0  0  0  0  0  0  0  0
   11.8812   -7.1888   -6.4579 H   0  0  0  0  0  0  0  0  0  0  0  0
   12.8071   -8.0269   -5.1628 H   0  0  0  0  0  0  0  0  0  0  0  0
   13.8386   -6.7370   -7.8097 H   0  0  0  0  0  0  0  0  0  0  0  0
   14.9513   -6.6541   -6.4299 H   0  0  0  0  0  0  0  0  0  0  0  0
   16.0045   -8.5460   -6.7901 H   0  0  0  0  0  0  0  0  0  0  0  0
   15.6041   -8.0606   -8.3932 H   0  0  0  0  0  0  0  0  0  0  0  0
   13.8602   -9.6272   -8.6305 H   0  0  0  0  0  0  0  0  0  0  0  0
   13.8615   -9.9226   -6.8758 H   0  0  0  0  0  0  0  0  0  0  0  0
   16.1290  -11.1455   -7.1972 H   0  0  0  0  0  0  0  0  0  0  0  0
   15.8638  -11.0316   -8.9412 H   0  0  0  0  0  0  0  0  0  0  0  0
   13.5783  -11.9588   -8.6871 H   0  0  0  0  0  0  0  0  0  0  0  0
   13.7698  -11.9941   -6.9352 H   0  0  0  0  0  0  0  0  0  0  0  0
   15.4845  -13.7659   -7.1335 H   0  0  0  0  0  0  0  0  0  0  0  0
   15.2394  -13.7896   -8.8910 H   0  0  0  0  0  0  0  0  0  0  0  0
   12.7766  -14.2092   -8.5267 H   0  0  0  0  0  0  0  0  0  0  0  0
   13.0245  -14.1806   -6.7850 H   0  0  0  0  0  0  0  0  0  0  0  0
   14.2954  -16.1801   -8.7126 H   0  0  0  0  0  0  0  0  0  0  0  0
   12.9331  -16.4960   -7.6189 H   0  0  0  0  0  0  0  0  0  0  0  0
   14.5401  -16.1470   -6.9516 H   0  0  0  0  0  0  0  0  0  0  0  0
   11.9675   -4.2111   -3.1982 H   0  0  0  0  0  0  0  0  0  0  0  0
   10.4784   -4.0864   -2.1332 H   0  0  0  0  0  0  0  0  0  0  0  0
  1  2  1  0  0  0  0
  1 30  1  0  0  0  0
  1 31  1  0  0  0  0
  1 32  1  0  0  0  0
  2  3  2  3  0  0  0
  2 29  1  0  0  0  0
  3  4  1  0  0  0  0
  3 33  1  0  0  0  0
  4  5  2  3  0  0  0
  4 34  1  0  0  0  0
  5  6  1  0  0  0  0
  5 35  1  0  0  0  0
  6  7  1  0  0  0  0
  6 36  1  0  0  0  0
  6 37  1  0  0  0  0
  7  8  2  3  0  0  0
  7 38  1  0  0  0  0
  8  9  1  0  0  0  0
  8 39  1  0  0  0  0
  9 10  1  0  0  0  0
  9 40  1  0  0  0  0
  9 41  1  0  0  0  0
 10 11  1  0  0  0  0
 10 42  1  0  0  0  0
 10 43  1  0  0  0  0
 11 12  1  0  0  0  0
 11 44  1  0  0  0  0
 11 45  1  0  0  0  0
 12 13  1  0  0  0  0
 12 46  1  0  0  0  0
 12 47  1  0  0  0  0
 13 14  2  0  0  0  0
 13 15  1  0  0  0  0
 15 16  2  3  0  0  0
 15 48  1  0  0  0  0
 16 17  1  0  0  0  0
 16 49  1  0  0  0  0
 17 18  2  3  0  0  0
 17 50  1  0  0  0  0
 18 19  1  0  0  0  0
 18 28  1  0  0  0  0
 19 20  1  0  0  0  0
 19 51  1  0  0  0  0
 19 52  1  0  0  0  0
 20 21  1  0  0  0  0
 20 53  1  0  0  0  0
 20 54  1  0  0  0  0
 21 22  1  0  0  0  0
 21 55  1  0  0  0  0
 21 56  1  0  0  0  0
 22 23  1  0  0  0  0
 22 57  1  0  0  0  0
 22 58  1  0  0  0  0
 23 24  1  0  0  0  0
 23 59  1  0  0  0  0
 23 60  1  0  0  0  0
 24 25  1  0  0  0  0
 24 61  1  0  0  0  0
 24 62  1  0  0  0  0
 25 26  1  0  0  0  0
 25 63  1  0  0  0  0
 25 64  1  0  0  0  0
 26 27  1  0  0  0  0
 26 65  1  0  0  0  0
 26 66  1  0  0  0  0
 27 67  1  0  0  0  0
 27 68  1  0  0  0  0
 27 69  1  0  0  0  0
 28 29  2  3  0  0  0
 28 70  1  0  0  0  0
 29 71  1  0  0  0  0
M  END
$$$$
