
 OpenBabel04232217023D

238237  0  0  0  0  0  0  0  0999 V2000
    0.9302    0.0605    0.0211 O   0  0  0  0  0  0  0  0  0  0  0  0
    2.3817    0.1122   -0.0201 N   0  0  0  0  0  0  0  0  0  0  0  0
    2.8303   -1.2104    0.4024 C   0  0  0  0  0  0  0  0  0  0  0  0
    4.3501   -1.2357    0.3989 C   0  0  0  0  0  0  0  0  0  0  0  0
    4.8747   -2.5942    0.8421 C   0  0  0  0  0  0  0  0  0  0  0  0
    6.2993   -2.5412    0.8173 O   0  0  0  0  0  0  0  0  0  0  0  0
    6.7320   -3.8615    1.2406 O   0  0  0  0  0  0  0  0  0  0  0  0
    8.1466   -3.7975    1.2156 C   0  0  0  0  0  0  0  0  0  0  0  0
    8.6675   -5.1503    1.6487 C   0  0  0  0  0  0  0  0  0  0  0  0
   10.1847   -5.1605    1.6448 C   0  0  0  0  0  0  0  0  0  0  0  0
   10.6985   -6.5213    2.0869 C   0  0  0  0  0  0  0  0  0  0  0  0
   12.2160   -6.5297    2.0868 C   0  0  0  0  0  0  0  0  0  0  0  0
   12.7266   -7.8890    2.5278 C   0  0  0  0  0  0  0  0  0  0  0  0
   14.2440   -7.8963    2.5255 C   0  0  0  0  0  0  0  0  0  0  0  0
   14.7548   -9.2548    2.9656 C   0  0  0  0  0  0  0  0  0  0  0  0
   16.2720   -9.2608    2.9650 C   0  0  0  0  0  0  0  0  0  0  0  0
   16.7822  -10.6193    3.4041 C   0  0  0  0  0  0  0  0  0  0  0  0
   18.2993  -10.6247    3.4049 C   0  0  0  0  0  0  0  0  0  0  0  0
   18.8093  -11.9832    3.8452 C   0  0  0  0  0  0  0  0  0  0  0  0
   20.3260  -11.9875    3.8485 C   0  0  0  0  0  0  0  0  0  0  0  0
   20.8362  -13.3468    4.2868 C   0  0  0  0  0  0  0  0  0  0  0  0
   22.3529  -13.3514    4.2883 C   0  0  0  0  0  0  0  0  0  0  0  0
   22.8630  -14.7102    4.7284 C   0  0  0  0  0  0  0  0  0  0  0  0
   24.3796  -14.7141    4.7318 C   0  0  0  0  0  0  0  0  0  0  0  0
   24.8896  -16.0729    5.1720 C   0  0  0  0  0  0  0  0  0  0  0  0
   26.4063  -16.0774    5.1735 C   0  0  0  0  0  0  0  0  0  0  0  0
   26.9163  -17.4362    5.6136 C   0  0  0  0  0  0  0  0  0  0  0  0
   28.4329  -17.4407    5.6151 C   0  0  0  0  0  0  0  0  0  0  0  0
   28.9430  -18.7995    6.0552 C   0  0  0  0  0  0  0  0  0  0  0  0
   30.4596  -18.8040    6.0567 C   0  0  0  0  0  0  0  0  0  0  0  0
   30.9696  -20.1629    6.4968 C   0  0  0  0  0  0  0  0  0  0  0  0
   32.4863  -20.1674    6.4983 C   0  0  0  0  0  0  0  0  0  0  0  0
   32.9963  -21.5262    6.9384 C   0  0  0  0  0  0  0  0  0  0  0  0
   34.5130  -21.5313    6.9380 C   0  0  0  0  0  0  0  0  0  0  0  0
   35.0230  -22.8901    7.3781 C   0  0  0  0  0  0  0  0  0  0  0  0
   36.5396  -22.8959    7.3758 C   0  0  0  0  0  0  0  0  0  0  0  0
   37.0496  -24.2553    7.8140 C   0  0  0  0  0  0  0  0  0  0  0  0
   38.5663  -24.2604    7.8136 C   0  0  0  0  0  0  0  0  0  0  0  0
   39.0763  -25.6205    8.2498 C   0  0  0  0  0  0  0  0  0  0  0  0
   40.5929  -25.6250    8.2513 C   0  0  0  0  0  0  0  0  0  0  0  0
   41.1030  -26.9857    8.6857 C   0  0  0  0  0  0  0  0  0  0  0  0
   42.6196  -26.9902    8.6872 C   0  0  0  0  0  0  0  0  0  0  0  0
   43.1296  -28.3508    9.1215 C   0  0  0  0  0  0  0  0  0  0  0  0
   44.6463  -28.3554    9.1230 C   0  0  0  0  0  0  0  0  0  0  0  0
   45.1563  -29.7160    9.5574 C   0  0  0  0  0  0  0  0  0  0  0  0
   46.6729  -29.7206    9.5589 C   0  0  0  0  0  0  0  0  0  0  0  0
   47.1829  -31.0812    9.9932 C   0  0  0  0  0  0  0  0  0  0  0  0
   48.6996  -31.0857    9.9948 C   0  0  0  0  0  0  0  0  0  0  0  0
   49.2096  -32.4464   10.4291 C   0  0  0  0  0  0  0  0  0  0  0  0
   50.7262  -32.4515   10.4287 C   0  0  0  0  0  0  0  0  0  0  0  0
   51.2363  -33.8122   10.8630 C   0  0  0  0  0  0  0  0  0  0  0  0
   52.7529  -33.8167   10.8646 C   0  0  0  0  0  0  0  0  0  0  0  0
   53.2629  -35.1768   11.3008 C   0  0  0  0  0  0  0  0  0  0  0  0
   54.7796  -35.1819   11.3004 C   0  0  0  0  0  0  0  0  0  0  0  0
   55.2896  -36.5413   11.7386 C   0  0  0  0  0  0  0  0  0  0  0  0
   56.8062  -36.5458   11.7401 C   0  0  0  0  0  0  0  0  0  0  0  0
   57.3163  -37.9059   12.1764 C   0  0  0  0  0  0  0  0  0  0  0  0
   58.8329  -37.9098   12.1798 C   0  0  0  0  0  0  0  0  0  0  0  0
   59.3429  -39.2698   12.6161 C   0  0  0  0  0  0  0  0  0  0  0  0
   60.8596  -39.2731   12.6214 C   0  0  0  0  0  0  0  0  0  0  0  0
   61.3696  -40.6332   13.0577 C   0  0  0  0  0  0  0  0  0  0  0  0
   62.8862  -40.6365   13.0630 C   0  0  0  0  0  0  0  0  0  0  0  0
   63.3962  -41.9965   13.4993 C   0  0  0  0  0  0  0  0  0  0  0  0
   64.9129  -41.9998   13.5047 C   0  0  0  0  0  0  0  0  0  0  0  0
   65.4229  -43.3598   13.9409 C   0  0  0  0  0  0  0  0  0  0  0  0
   66.9395  -43.3631   13.9463 C   0  0  0  0  0  0  0  0  0  0  0  0
   67.4496  -44.7232   14.3825 C   0  0  0  0  0  0  0  0  0  0  0  0
   68.9662  -44.7265   14.3879 C   0  0  0  0  0  0  0  0  0  0  0  0
   69.4763  -46.0866   14.8242 C   0  0  0  0  0  0  0  0  0  0  0  0
   70.9929  -46.0893   14.8314 C   0  0  0  0  0  0  0  0  0  0  0  0
   71.5031  -47.4495   15.2678 C   0  0  0  0  0  0  0  0  0  0  0  0
   73.0200  -47.4523   15.2751 C   0  0  0  0  0  0  0  0  0  0  0  0
   73.5303  -48.8124   15.7113 C   0  0  0  0  0  0  0  0  0  0  0  0
   75.0479  -48.8154   15.7188 C   0  0  0  0  0  0  0  0  0  0  0  0
   75.5582  -50.1765   16.1554 C   0  0  0  0  0  0  0  0  0  0  0  0
   77.0759  -50.1801   16.1651 C   0  0  0  0  0  0  0  0  0  0  0  0
   77.5897  -51.5419   16.6019 C   0  0  0  0  0  0  0  0  0  0  0  0
   79.1077  -51.5447   16.6114 C   0  0  0  0  0  0  0  0  0  0  0  0
   79.6290  -52.9075   17.0465 C   0  0  0  0  0  0  0  0  0  0  0  0
   81.1535  -52.9281   17.0637 C   0  0  0  0  0  0  0  0  0  0  0  0
   81.6667  -54.2858   17.4971 C   0  0  0  0  0  0  0  0  0  0  0  0
    0.7135    0.8602   -0.4827 H   0  0  0  0  0  0  0  0  0  0  0  0
    2.5718    0.7730    0.7370 H   0  0  0  0  0  0  0  0  0  0  0  0
    2.4496   -1.9768   -0.2827 H   0  0  0  0  0  0  0  0  0  0  0  0
    2.4559   -1.4375    1.4096 H   0  0  0  0  0  0  0  0  0  0  0  0
    4.7569   -0.4657    1.0751 H   0  0  0  0  0  0  0  0  0  0  0  0
    4.7490   -1.0033   -0.5924 H   0  0  0  0  0  0  0  0  0  0  0  0
    4.5340   -3.3804    0.1608 H   0  0  0  0  0  0  0  0  0  0  0  0
    4.5433   -2.8303    1.8588 H   0  0  0  0  0  0  0  0  0  0  0  0
    8.4902   -3.0124    1.8988 H   0  0  0  0  0  0  0  0  0  0  0  0
    8.4844   -3.5589    0.1990 H   0  0  0  0  0  0  0  0  0  0  0  0
    8.2769   -5.9276    0.9793 H   0  0  0  0  0  0  0  0  0  0  0  0
    8.2812   -5.3909    2.6473 H   0  0  0  0  0  0  0  0  0  0  0  0
   10.5639   -4.3847    2.3240 H   0  0  0  0  0  0  0  0  0  0  0  0
   10.5597   -4.9275    0.6437 H   0  0  0  0  0  0  0  0  0  0  0  0
   10.3208   -7.2984    1.4101 H   0  0  0  0  0  0  0  0  0  0  0  0
   10.3237   -6.7555    3.0904 H   0  0  0  0  0  0  0  0  0  0  0  0
   12.5947   -5.7520    2.7616 H   0  0  0  0  0  0  0  0  0  0  0  0
   12.5911   -6.2980    1.0821 H   0  0  0  0  0  0  0  0  0  0  0  0
   12.3487   -8.6675    1.8533 H   0  0  0  0  0  0  0  0  0  0  0  0
   12.3537   -8.1205    3.5326 H   0  0  0  0  0  0  0  0  0  0  0  0
   14.6228   -7.1182    3.1999 H   0  0  0  0  0  0  0  0  0  0  0  0
   14.6180   -7.6641    1.5206 H   0  0  0  0  0  0  0  0  0  0  0  0
   14.3779  -10.0329    2.2903 H   0  0  0  0  0  0  0  0  0  0  0  0
   14.3805   -9.4878    3.9705 H   0  0  0  0  0  0  0  0  0  0  0  0
   16.6491   -8.4826    3.6404 H   0  0  0  0  0  0  0  0  0  0  0  0
   16.6463   -9.0275    1.9606 H   0  0  0  0  0  0  0  0  0  0  0  0
   16.4059  -11.3968    2.7293 H   0  0  0  0  0  0  0  0  0  0  0  0
   16.4078  -10.8520    4.4084 H   0  0  0  0  0  0  0  0  0  0  0  0
   18.6759   -9.8467    4.0800 H   0  0  0  0  0  0  0  0  0  0  0  0
   18.6743  -10.3920    2.4004 H   0  0  0  0  0  0  0  0  0  0  0  0
   18.4347  -12.7610    3.1682 H   0  0  0  0  0  0  0  0  0  0  0  0
   18.4326  -12.2174    4.8486 H   0  0  0  0  0  0  0  0  0  0  0  0
   20.7008  -11.2109    4.5268 H   0  0  0  0  0  0  0  0  0  0  0  0
   20.7032  -11.7519    2.8457 H   0  0  0  0  0  0  0  0  0  0  0  0
   20.4606  -14.1237    3.6094 H   0  0  0  0  0  0  0  0  0  0  0  0
   20.4604  -13.5818    5.2903 H   0  0  0  0  0  0  0  0  0  0  0  0
   22.7287  -12.5737    4.9647 H   0  0  0  0  0  0  0  0  0  0  0  0
   22.7288  -13.1179    3.2845 H   0  0  0  0  0  0  0  0  0  0  0  0
   22.4883  -15.4877    4.0512 H   0  0  0  0  0  0  0  0  0  0  0  0
   22.4860  -14.9444    5.7317 H   0  0  0  0  0  0  0  0  0  0  0  0
   24.7542  -13.9366    5.4090 H   0  0  0  0  0  0  0  0  0  0  0  0
   24.7566  -14.4799    3.7286 H   0  0  0  0  0  0  0  0  0  0  0  0
   24.5139  -16.8506    4.4956 H   0  0  0  0  0  0  0  0  0  0  0  0
   24.5138  -16.3064    6.1758 H   0  0  0  0  0  0  0  0  0  0  0  0
   26.7820  -15.2997    5.8498 H   0  0  0  0  0  0  0  0  0  0  0  0
   26.7821  -15.8439    4.1697 H   0  0  0  0  0  0  0  0  0  0  0  0
   26.5406  -18.2139    4.9372 H   0  0  0  0  0  0  0  0  0  0  0  0
   26.5405  -17.6697    6.6174 H   0  0  0  0  0  0  0  0  0  0  0  0
   28.8087  -16.6630    6.2914 H   0  0  0  0  0  0  0  0  0  0  0  0
   28.8088  -17.2072    4.6113 H   0  0  0  0  0  0  0  0  0  0  0  0
   28.5672  -19.5772    5.3789 H   0  0  0  0  0  0  0  0  0  0  0  0
   28.5672  -19.0330    7.0590 H   0  0  0  0  0  0  0  0  0  0  0  0
   30.8354  -18.0263    6.7330 H   0  0  0  0  0  0  0  0  0  0  0  0
   30.8354  -18.5705    5.0529 H   0  0  0  0  0  0  0  0  0  0  0  0
   30.5939  -20.9405    5.8205 H   0  0  0  0  0  0  0  0  0  0  0  0
   30.5939  -20.3964    7.5006 H   0  0  0  0  0  0  0  0  0  0  0  0
   32.8621  -19.3897    7.1746 H   0  0  0  0  0  0  0  0  0  0  0  0
   32.8620  -19.9339    5.4945 H   0  0  0  0  0  0  0  0  0  0  0  0
   32.6194  -22.3040    6.2629 H   0  0  0  0  0  0  0  0  0  0  0  0
   32.6217  -21.7590    7.9428 H   0  0  0  0  0  0  0  0  0  0  0  0
   34.8900  -20.7534    7.6135 H   0  0  0  0  0  0  0  0  0  0  0  0
   34.8875  -21.2984    5.9336 H   0  0  0  0  0  0  0  0  0  0  0  0
   34.6449  -23.6681    6.7034 H   0  0  0  0  0  0  0  0  0  0  0  0
   34.6495  -23.1224    8.3831 H   0  0  0  0  0  0  0  0  0  0  0  0
   36.9177  -22.1187    8.0515 H   0  0  0  0  0  0  0  0  0  0  0  0
   36.9131  -22.6623    6.3712 H   0  0  0  0  0  0  0  0  0  0  0  0
   36.6727  -25.0322    7.1374 H   0  0  0  0  0  0  0  0  0  0  0  0
   36.6751  -24.4896    8.8181 H   0  0  0  0  0  0  0  0  0  0  0  0
   38.9432  -23.4844    8.4912 H   0  0  0  0  0  0  0  0  0  0  0  0
   38.9410  -24.0248    6.8098 H   0  0  0  0  0  0  0  0  0  0  0  0
   38.7005  -26.3962    7.5713 H   0  0  0  0  0  0  0  0  0  0  0  0
   38.7006  -25.8569    9.2530 H   0  0  0  0  0  0  0  0  0  0  0  0
   40.9687  -24.8502    8.9309 H   0  0  0  0  0  0  0  0  0  0  0  0
   40.9688  -25.3873    7.2485 H   0  0  0  0  0  0  0  0  0  0  0  0
   40.7272  -27.7605    8.0061 H   0  0  0  0  0  0  0  0  0  0  0  0
   40.7271  -27.2234    9.6885 H   0  0  0  0  0  0  0  0  0  0  0  0
   42.9954  -26.2154    9.3668 H   0  0  0  0  0  0  0  0  0  0  0  0
   42.9954  -26.7524    7.6844 H   0  0  0  0  0  0  0  0  0  0  0  0
   42.7539  -29.1257    8.4419 H   0  0  0  0  0  0  0  0  0  0  0  0
   42.7538  -28.5886   10.1244 H   0  0  0  0  0  0  0  0  0  0  0  0
   45.0220  -27.5805    9.8027 H   0  0  0  0  0  0  0  0  0  0  0  0
   45.0221  -28.1176    8.1202 H   0  0  0  0  0  0  0  0  0  0  0  0
   44.7805  -30.4908    8.8778 H   0  0  0  0  0  0  0  0  0  0  0  0
   44.7805  -29.9538   10.5602 H   0  0  0  0  0  0  0  0  0  0  0  0
   47.0487  -28.9457   10.2385 H   0  0  0  0  0  0  0  0  0  0  0  0
   47.0488  -29.4828    8.5561 H   0  0  0  0  0  0  0  0  0  0  0  0
   46.8072  -31.8560    9.3136 H   0  0  0  0  0  0  0  0  0  0  0  0
   46.8071  -31.3190   10.9961 H   0  0  0  0  0  0  0  0  0  0  0  0
   49.0754  -30.3109   10.6744 H   0  0  0  0  0  0  0  0  0  0  0  0
   49.0754  -30.8480    8.9919 H   0  0  0  0  0  0  0  0  0  0  0  0
   48.8327  -33.2214    9.7503 H   0  0  0  0  0  0  0  0  0  0  0  0
   48.8349  -32.6835   11.4325 H   0  0  0  0  0  0  0  0  0  0  0  0
   51.1031  -31.6765   11.1075 H   0  0  0  0  0  0  0  0  0  0  0  0
   51.1010  -32.2144    9.4253 H   0  0  0  0  0  0  0  0  0  0  0  0
   50.8605  -34.5870   10.1835 H   0  0  0  0  0  0  0  0  0  0  0  0
   50.8605  -34.0499   11.8659 H   0  0  0  0  0  0  0  0  0  0  0  0
   53.1287  -33.0410   11.5431 H   0  0  0  0  0  0  0  0  0  0  0  0
   53.1287  -33.5803    9.8614 H   0  0  0  0  0  0  0  0  0  0  0  0
   52.8861  -35.9528   10.6231 H   0  0  0  0  0  0  0  0  0  0  0  0
   52.8882  -35.4124   12.3045 H   0  0  0  0  0  0  0  0  0  0  0  0
   55.1565  -34.4050   11.9770 H   0  0  0  0  0  0  0  0  0  0  0  0
   55.1542  -34.9476   10.2964 H   0  0  0  0  0  0  0  0  0  0  0  0
   54.9138  -37.3180   11.0611 H   0  0  0  0  0  0  0  0  0  0  0  0
   54.9139  -36.7763   12.7421 H   0  0  0  0  0  0  0  0  0  0  0  0
   57.1819  -35.7700   12.4186 H   0  0  0  0  0  0  0  0  0  0  0  0
   57.1821  -36.3095   10.7369 H   0  0  0  0  0  0  0  0  0  0  0  0
   56.9416  -38.6815   11.4970 H   0  0  0  0  0  0  0  0  0  0  0  0
   56.9393  -38.1429   13.1789 H   0  0  0  0  0  0  0  0  0  0  0  0
   59.2074  -37.1342   12.8592 H   0  0  0  0  0  0  0  0  0  0  0  0
   59.2099  -37.6728   11.1772 H   0  0  0  0  0  0  0  0  0  0  0  0
   58.9695  -40.0453   11.9359 H   0  0  0  0  0  0  0  0  0  0  0  0
   58.9648  -39.5074   13.6181 H   0  0  0  0  0  0  0  0  0  0  0  0
   61.2330  -38.4977   13.3016 H   0  0  0  0  0  0  0  0  0  0  0  0
   61.2377  -39.0355   11.6194 H   0  0  0  0  0  0  0  0  0  0  0  0
   60.9962  -41.4086   12.3775 H   0  0  0  0  0  0  0  0  0  0  0  0
   60.9914  -40.8708   14.0597 H   0  0  0  0  0  0  0  0  0  0  0  0
   63.2596  -39.8610   13.7433 H   0  0  0  0  0  0  0  0  0  0  0  0
   63.2644  -40.3989   12.0611 H   0  0  0  0  0  0  0  0  0  0  0  0
   63.0228  -42.7719   12.8191 H   0  0  0  0  0  0  0  0  0  0  0  0
   63.0181  -42.2341   14.5013 H   0  0  0  0  0  0  0  0  0  0  0  0
   65.2863  -41.2244   14.1849 H   0  0  0  0  0  0  0  0  0  0  0  0
   65.2910  -41.7622   12.5027 H   0  0  0  0  0  0  0  0  0  0  0  0
   65.0495  -44.1353   13.2607 H   0  0  0  0  0  0  0  0  0  0  0  0
   65.0447  -43.5974   14.9429 H   0  0  0  0  0  0  0  0  0  0  0  0
   67.3129  -42.5877   14.6265 H   0  0  0  0  0  0  0  0  0  0  0  0
   67.3177  -43.1255   12.9443 H   0  0  0  0  0  0  0  0  0  0  0  0
   67.0762  -45.4986   13.7023 H   0  0  0  0  0  0  0  0  0  0  0  0
   67.0714  -44.9608   15.3845 H   0  0  0  0  0  0  0  0  0  0  0  0
   69.3395  -43.9510   15.0681 H   0  0  0  0  0  0  0  0  0  0  0  0
   69.3444  -44.4888   13.3859 H   0  0  0  0  0  0  0  0  0  0  0  0
   69.1040  -46.8618   14.1431 H   0  0  0  0  0  0  0  0  0  0  0  0
   69.0970  -46.3248   15.8256 H   0  0  0  0  0  0  0  0  0  0  0  0
   71.3651  -45.3139   15.5125 H   0  0  0  0  0  0  0  0  0  0  0  0
   71.3722  -45.8509   13.8301 H   0  0  0  0  0  0  0  0  0  0  0  0
   71.1309  -48.2245   14.5866 H   0  0  0  0  0  0  0  0  0  0  0  0
   71.1237  -47.6875   16.2691 H   0  0  0  0  0  0  0  0  0  0  0  0
   73.3921  -46.6767   15.9561 H   0  0  0  0  0  0  0  0  0  0  0  0
   73.3992  -47.2138   14.2736 H   0  0  0  0  0  0  0  0  0  0  0  0
   73.1580  -49.5875   15.0302 H   0  0  0  0  0  0  0  0  0  0  0  0
   73.1509  -49.0505   16.7127 H   0  0  0  0  0  0  0  0  0  0  0  0
   75.4195  -48.0403   16.3999 H   0  0  0  0  0  0  0  0  0  0  0  0
   75.4267  -48.5773   14.7174 H   0  0  0  0  0  0  0  0  0  0  0  0
   75.1873  -50.9514   15.4738 H   0  0  0  0  0  0  0  0  0  0  0  0
   75.1779  -50.4155   17.1558 H   0  0  0  0  0  0  0  0  0  0  0  0
   77.4473  -49.4061   16.8473 H   0  0  0  0  0  0  0  0  0  0  0  0
   77.4567  -49.9422   15.1647 H   0  0  0  0  0  0  0  0  0  0  0  0
   77.2190  -52.3166   15.9199 H   0  0  0  0  0  0  0  0  0  0  0  0
   77.2096  -51.7805   17.6025 H   0  0  0  0  0  0  0  0  0  0  0  0
   79.4796  -50.7708   17.2943 H   0  0  0  0  0  0  0  0  0  0  0  0
   79.4892  -51.3046   15.6111 H   0  0  0  0  0  0  0  0  0  0  0  0
   79.2564  -53.6809   16.3629 H   0  0  0  0  0  0  0  0  0  0  0  0
   79.2447  -53.1481   18.0458 H   0  0  0  0  0  0  0  0  0  0  0  0
   81.5271  -52.1553   17.7477 H   0  0  0  0  0  0  0  0  0  0  0  0
   81.5389  -52.6882   16.0644 H   0  0  0  0  0  0  0  0  0  0  0  0
   81.3093  -54.5305   18.5027 H   0  0  0  0  0  0  0  0  0  0  0  0
   82.7574  -54.2922   17.5068 H   0  0  0  0  0  0  0  0  0  0  0  0
   81.3211  -55.0660   16.8110 H   0  0  0  0  0  0  0  0  0  0  0  0
  1  2  1  0  0  0  0
  1 82  1  0  0  0  0
  2  3  1  0  0  0  0
  2 83  1  0  0  0  0
  3  4  1  0  0  0  0
  3 84  1  0  0  0  0
  3 85  1  0  0  0  0
  4  5  1  0  0  0  0
  4 86  1  0  0  0  0
  4 87  1  0  0  0  0
  5  6  1  0  0  0  0
  5 88  1  0  0  0  0
  5 89  1  0  0  0  0
  6  7  1  0  0  0  0
  7  8  1  0  0  0  0
  8  9  1  0  0  0  0
  8 90  1  0  0  0  0
  8 91  1  0  0  0  0
  9 10  1  0  0  0  0
  9 92  1  0  0  0  0
  9 93  1  0  0  0  0
 10 11  1  0  0  0  0
 10 94  1  0  0  0  0
 10 95  1  0  0  0  0
 11 12  1  0  0  0  0
 11 96  1  0  0  0  0
 11 97  1  0  0  0  0
 12 13  1  0  0  0  0
 12 98  1  0  0  0  0
 12 99  1  0  0  0  0
 13 14  1  0  0  0  0
 13100  1  0  0  0  0
 13101  1  0  0  0  0
 14 15  1  0  0  0  0
 14102  1  0  0  0  0
 14103  1  0  0  0  0
 15 16  1  0  0  0  0
 15104  1  0  0  0  0
 15105  1  0  0  0  0
 16 17  1  0  0  0  0
 16106  1  0  0  0  0
 16107  1  0  0  0  0
 17 18  1  0  0  0  0
 17108  1  0  0  0  0
 17109  1  0  0  0  0
 18 19  1  0  0  0  0
 18110  1  0  0  0  0
 18111  1  0  0  0  0
 19 20  1  0  0  0  0
 19112  1  0  0  0  0
 19113  1  0  0  0  0
 20 21  1  0  0  0  0
 20114  1  0  0  0  0
 20115  1  0  0  0  0
 21 22  1  0  0  0  0
 21116  1  0  0  0  0
 21117  1  0  0  0  0
 22 23  1  0  0  0  0
 22118  1  0  0  0  0
 22119  1  0  0  0  0
 23 24  1  0  0  0  0
 23120  1  0  0  0  0
 23121  1  0  0  0  0
 24 25  1  0  0  0  0
 24122  1  0  0  0  0
 24123  1  0  0  0  0
 25 26  1  0  0  0  0
 25124  1  0  0  0  0
 25125  1  0  0  0  0
 26 27  1  0  0  0  0
 26126  1  0  0  0  0
 26127  1  0  0  0  0
 27 28  1  0  0  0  0
 27128  1  0  0  0  0
 27129  1  0  0  0  0
 28 29  1  0  0  0  0
 28130  1  0  0  0  0
 28131  1  0  0  0  0
 29 30  1  0  0  0  0
 29132  1  0  0  0  0
 29133  1  0  0  0  0
 30 31  1  0  0  0  0
 30134  1  0  0  0  0
 30135  1  0  0  0  0
 31 32  1  0  0  0  0
 31136  1  0  0  0  0
 31137  1  0  0  0  0
 32 33  1  0  0  0  0
 32138  1  0  0  0  0
 32139  1  0  0  0  0
 33 34  1  0  0  0  0
 33140  1  0  0  0  0
 33141  1  0  0  0  0
 34 35  1  0  0  0  0
 34142  1  0  0  0  0
 34143  1  0  0  0  0
 35 36  1  0  0  0  0
 35144  1  0  0  0  0
 35145  1  0  0  0  0
 36 37  1  0  0  0  0
 36146  1  0  0  0  0
 36147  1  0  0  0  0
 37 38  1  0  0  0  0
 37148  1  0  0  0  0
 37149  1  0  0  0  0
 38 39  1  0  0  0  0
 38150  1  0  0  0  0
 38151  1  0  0  0  0
 39 40  1  0  0  0  0
 39152  1  0  0  0  0
 39153  1  0  0  0  0
 40 41  1  0  0  0  0
 40154  1  0  0  0  0
 40155  1  0  0  0  0
 41 42  1  0  0  0  0
 41156  1  0  0  0  0
 41157  1  0  0  0  0
 42 43  1  0  0  0  0
 42158  1  0  0  0  0
 42159  1  0  0  0  0
 43 44  1  0  0  0  0
 43160  1  0  0  0  0
 43161  1  0  0  0  0
 44 45  1  0  0  0  0
 44162  1  0  0  0  0
 44163  1  0  0  0  0
 45 46  1  0  0  0  0
 45164  1  0  0  0  0
 45165  1  0  0  0  0
 46 47  1  0  0  0  0
 46166  1  0  0  0  0
 46167  1  0  0  0  0
 47 48  1  0  0  0  0
 47168  1  0  0  0  0
 47169  1  0  0  0  0
 48 49  1  0  0  0  0
 48170  1  0  0  0  0
 48171  1  0  0  0  0
 49 50  1  0  0  0  0
 49172  1  0  0  0  0
 49173  1  0  0  0  0
 50 51  1  0  0  0  0
 50174  1  0  0  0  0
 50175  1  0  0  0  0
 51 52  1  0  0  0  0
 51176  1  0  0  0  0
 51177  1  0  0  0  0
 52 53  1  0  0  0  0
 52178  1  0  0  0  0
 52179  1  0  0  0  0
 53 54  1  0  0  0  0
 53180  1  0  0  0  0
 53181  1  0  0  0  0
 54 55  1  0  0  0  0
 54182  1  0  0  0  0
 54183  1  0  0  0  0
 55 56  1  0  0  0  0
 55184  1  0  0  0  0
 55185  1  0  0  0  0
 56 57  1  0  0  0  0
 56186  1  0  0  0  0
 56187  1  0  0  0  0
 57 58  1  0  0  0  0
 57188  1  0  0  0  0
 57189  1  0  0  0  0
 58 59  1  0  0  0  0
 58190  1  0  0  0  0
 58191  1  0  0  0  0
 59 60  1  0  0  0  0
 59192  1  0  0  0  0
 59193  1  0  0  0  0
 60 61  1  0  0  0  0
 60194  1  0  0  0  0
 60195  1  0  0  0  0
 61 62  1  0  0  0  0
 61196  1  0  0  0  0
 61197  1  0  0  0  0
 62 63  1  0  0  0  0
 62198  1  0  0  0  0
 62199  1  0  0  0  0
 63 64  1  0  0  0  0
 63200  1  0  0  0  0
 63201  1  0  0  0  0
 64 65  1  0  0  0  0
 64202  1  0  0  0  0
 64203  1  0  0  0  0
 65 66  1  0  0  0  0
 65204  1  0  0  0  0
 65205  1  0  0  0  0
 66 67  1  0  0  0  0
 66206  1  0  0  0  0
 66207  1  0  0  0  0
 67 68  1  0  0  0  0
 67208  1  0  0  0  0
 67209  1  0  0  0  0
 68 69  1  0  0  0  0
 68210  1  0  0  0  0
 68211  1  0  0  0  0
 69 70  1  0  0  0  0
 69212  1  0  0  0  0
 69213  1  0  0  0  0
 70 71  1  0  0  0  0
 70214  1  0  0  0  0
 70215  1  0  0  0  0
 71 72  1  0  0  0  0
 71216  1  0  0  0  0
 71217  1  0  0  0  0
 72 73  1  0  0  0  0
 72218  1  0  0  0  0
 72219  1  0  0  0  0
 73 74  1  0  0  0  0
 73220  1  0  0  0  0
 73221  1  0  0  0  0
 74 75  1  0  0  0  0
 74222  1  0  0  0  0
 74223  1  0  0  0  0
 75 76  1  0  0  0  0
 75224  1  0  0  0  0
 75225  1  0  0  0  0
 76 77  1  0  0  0  0
 76226  1  0  0  0  0
 76227  1  0  0  0  0
 77 78  1  0  0  0  0
 77228  1  0  0  0  0
 77229  1  0  0  0  0
 78 79  1  0  0  0  0
 78230  1  0  0  0  0
 78231  1  0  0  0  0
 79 80  1  0  0  0  0
 79232  1  0  0  0  0
 79233  1  0  0  0  0
 80 81  1  0  0  0  0
 80234  1  0  0  0  0
 80235  1  0  0  0  0
 81236  1  0  0  0  0
 81237  1  0  0  0  0
 81238  1  0  0  0  0
M  END
$$$$
