
 OpenBabel04232216593D

230229  0  0  0  0  0  0  0  0999 V2000
    1.1493    0.5252   -0.1478 O   0  0  0  0  0  0  0  0  0  0  0  0
    2.2786    0.1000    0.0971 C   0  0  0  0  0  0  0  0  0  0  0  0
    2.9118    0.3083    1.4472 C   0  0  0  0  0  0  0  0  0  0  0  0
    3.0396   -0.7392   -0.9167 C   0  0  0  0  0  0  0  0  0  0  0  0
    4.4437   -0.6043   -0.7604 O   0  0  0  0  0  0  0  0  0  0  0  0
    5.1413   -1.3767   -1.7312 C   0  0  0  0  0  0  0  0  0  0  0  0
    6.6310   -1.1896   -1.5079 C   0  0  0  0  0  0  0  0  0  0  0  0
    7.4186   -1.9980   -2.5253 C   0  0  0  0  0  0  0  0  0  0  0  0
    8.9136   -1.8233   -2.3143 C   0  0  0  0  0  0  0  0  0  0  0  0
    9.6815   -2.6401   -3.3413 C   0  0  0  0  0  0  0  0  0  0  0  0
   11.1761   -2.4711   -3.1352 C   0  0  0  0  0  0  0  0  0  0  0  0
   11.9390   -3.2889   -4.1623 C   0  0  0  0  0  0  0  0  0  0  0  0
   13.4329   -3.1198   -3.9528 C   0  0  0  0  0  0  0  0  0  0  0  0
   14.1961   -3.9358   -4.9796 C   0  0  0  0  0  0  0  0  0  0  0  0
   15.6889   -3.7640   -4.7692 C   0  0  0  0  0  0  0  0  0  0  0  0
   16.4520   -4.5794   -5.7958 C   0  0  0  0  0  0  0  0  0  0  0  0
   17.9444   -4.4088   -5.5838 C   0  0  0  0  0  0  0  0  0  0  0  0
   18.7071   -5.2230   -6.6115 C   0  0  0  0  0  0  0  0  0  0  0  0
   20.1993   -5.0536   -6.3982 C   0  0  0  0  0  0  0  0  0  0  0  0
   20.9619   -5.8691   -7.4247 C   0  0  0  0  0  0  0  0  0  0  0  0
   22.4540   -5.6983   -7.2125 C   0  0  0  0  0  0  0  0  0  0  0  0
   23.2165   -6.5122   -8.2403 C   0  0  0  0  0  0  0  0  0  0  0  0
   24.7085   -6.3430   -8.0269 C   0  0  0  0  0  0  0  0  0  0  0  0
   25.4709   -7.1554   -9.0558 C   0  0  0  0  0  0  0  0  0  0  0  0
   26.9629   -6.9876   -8.8412 C   0  0  0  0  0  0  0  0  0  0  0  0
   27.7253   -7.8000   -9.8702 C   0  0  0  0  0  0  0  0  0  0  0  0
   29.2173   -7.6308   -9.6567 C   0  0  0  0  0  0  0  0  0  0  0  0
   29.9798   -8.4431  -10.6857 C   0  0  0  0  0  0  0  0  0  0  0  0
   31.4717   -8.2739  -10.4722 C   0  0  0  0  0  0  0  0  0  0  0  0
   32.2342   -9.0863  -11.5013 C   0  0  0  0  0  0  0  0  0  0  0  0
   33.7261   -8.9185  -11.2865 C   0  0  0  0  0  0  0  0  0  0  0  0
   34.4889   -9.7308  -12.3153 C   0  0  0  0  0  0  0  0  0  0  0  0
   35.9808   -9.5627  -12.1001 C   0  0  0  0  0  0  0  0  0  0  0  0
   36.7436  -10.3746  -13.1293 C   0  0  0  0  0  0  0  0  0  0  0  0
   38.2356  -10.2057  -12.9159 C   0  0  0  0  0  0  0  0  0  0  0  0
   38.9976  -11.0193  -13.9443 C   0  0  0  0  0  0  0  0  0  0  0  0
   40.4896  -10.8503  -13.7310 C   0  0  0  0  0  0  0  0  0  0  0  0
   41.2518  -11.6649  -14.7585 C   0  0  0  0  0  0  0  0  0  0  0  0
   42.7437  -11.4956  -14.5451 C   0  0  0  0  0  0  0  0  0  0  0  0
   43.5061  -12.3095  -15.5730 C   0  0  0  0  0  0  0  0  0  0  0  0
   44.9980  -12.1396  -15.3600 C   0  0  0  0  0  0  0  0  0  0  0  0
   45.7605  -12.9532  -16.3879 C   0  0  0  0  0  0  0  0  0  0  0  0
   47.2525  -12.7837  -16.1746 C   0  0  0  0  0  0  0  0  0  0  0  0
   48.0150  -13.5972  -17.2028 C   0  0  0  0  0  0  0  0  0  0  0  0
   49.5070  -13.4275  -16.9896 C   0  0  0  0  0  0  0  0  0  0  0  0
   50.2694  -14.2413  -18.0176 C   0  0  0  0  0  0  0  0  0  0  0  0
   51.7614  -14.0715  -17.8046 C   0  0  0  0  0  0  0  0  0  0  0  0
   52.5239  -14.8853  -18.8325 C   0  0  0  0  0  0  0  0  0  0  0  0
   54.0159  -14.7167  -18.6185 C   0  0  0  0  0  0  0  0  0  0  0  0
   54.7784  -15.5292  -19.6474 C   0  0  0  0  0  0  0  0  0  0  0  0
   56.2704  -15.3590  -19.4346 C   0  0  0  0  0  0  0  0  0  0  0  0
   57.0329  -16.1716  -20.4635 C   0  0  0  0  0  0  0  0  0  0  0  0
   58.5248  -15.9997  -20.2521 C   0  0  0  0  0  0  0  0  0  0  0  0
   59.2872  -16.8106  -21.2823 C   0  0  0  0  0  0  0  0  0  0  0  0
   60.7791  -16.6374  -21.0719 C   0  0  0  0  0  0  0  0  0  0  0  0
   61.5415  -17.4482  -22.1022 C   0  0  0  0  0  0  0  0  0  0  0  0
   63.0335  -17.2764  -21.8907 C   0  0  0  0  0  0  0  0  0  0  0  0
   63.7959  -18.0873  -22.9209 C   0  0  0  0  0  0  0  0  0  0  0  0
   65.2879  -17.9156  -22.7093 C   0  0  0  0  0  0  0  0  0  0  0  0
   66.0503  -18.7264  -23.7395 C   0  0  0  0  0  0  0  0  0  0  0  0
   67.5423  -18.5547  -23.5280 C   0  0  0  0  0  0  0  0  0  0  0  0
   68.3049  -19.3656  -24.5583 C   0  0  0  0  0  0  0  0  0  0  0  0
   69.7969  -19.1939  -24.3467 C   0  0  0  0  0  0  0  0  0  0  0  0
   70.5595  -20.0048  -25.3770 C   0  0  0  0  0  0  0  0  0  0  0  0
   72.0517  -19.8333  -25.1656 C   0  0  0  0  0  0  0  0  0  0  0  0
   72.8150  -20.6440  -26.1958 C   0  0  0  0  0  0  0  0  0  0  0  0
   74.3074  -20.4703  -25.9852 C   0  0  0  0  0  0  0  0  0  0  0  0
   75.0709  -21.2816  -27.0148 C   0  0  0  0  0  0  0  0  0  0  0  0
   76.5644  -21.1097  -26.8065 C   0  0  0  0  0  0  0  0  0  0  0  0
   77.3269  -21.9199  -27.8384 C   0  0  0  0  0  0  0  0  0  0  0  0
   78.8215  -21.7477  -27.6286 C   0  0  0  0  0  0  0  0  0  0  0  0
   79.5889  -22.5589  -28.6586 C   0  0  0  0  0  0  0  0  0  0  0  0
   81.0844  -22.3890  -28.4493 C   0  0  0  0  0  0  0  0  0  0  0  0
   81.8545  -23.1990  -29.4784 C   0  0  0  0  0  0  0  0  0  0  0  0
   83.3533  -23.0309  -29.2717 C   0  0  0  0  0  0  0  0  0  0  0  0
   84.1254  -23.8413  -30.3044 C   0  0  0  0  0  0  0  0  0  0  0  0
   85.6280  -23.6794  -30.1090 C   0  0  0  0  0  0  0  0  0  0  0  0
   86.3963  -24.4875  -31.1388 C   0  0  0  0  0  0  0  0  0  0  0  0
    2.2405    0.9034    2.0726 H   0  0  0  0  0  0  0  0  0  0  0  0
    3.8527    0.8520    1.3360 H   0  0  0  0  0  0  0  0  0  0  0  0
    3.0830   -0.6566    1.9303 H   0  0  0  0  0  0  0  0  0  0  0  0
    2.7536   -0.3985   -1.9182 H   0  0  0  0  0  0  0  0  0  0  0  0
    2.7489   -1.7866   -0.7816 H   0  0  0  0  0  0  0  0  0  0  0  0
    4.8662   -1.0409   -2.7379 H   0  0  0  0  0  0  0  0  0  0  0  0
    4.8743   -2.4344   -1.6221 H   0  0  0  0  0  0  0  0  0  0  0  0
    6.8944   -1.4943   -0.4873 H   0  0  0  0  0  0  0  0  0  0  0  0
    6.8865   -0.1251   -1.5813 H   0  0  0  0  0  0  0  0  0  0  0  0
    7.1500   -1.6802   -3.5404 H   0  0  0  0  0  0  0  0  0  0  0  0
    7.1563   -3.0598   -2.4397 H   0  0  0  0  0  0  0  0  0  0  0  0
    9.1891   -2.1442   -1.3024 H   0  0  0  0  0  0  0  0  0  0  0  0
    9.1833   -0.7640   -2.4043 H   0  0  0  0  0  0  0  0  0  0  0  0
    9.4075   -2.3187   -4.3535 H   0  0  0  0  0  0  0  0  0  0  0  0
    9.4112   -3.6998   -3.2542 H   0  0  0  0  0  0  0  0  0  0  0  0
   11.4522   -2.7925   -2.1233 H   0  0  0  0  0  0  0  0  0  0  0  0
   11.4485   -1.4123   -3.2256 H   0  0  0  0  0  0  0  0  0  0  0  0
   11.6657   -2.9676   -5.1750 H   0  0  0  0  0  0  0  0  0  0  0  0
   11.6677   -4.3482   -4.0741 H   0  0  0  0  0  0  0  0  0  0  0  0
   13.7071   -3.4428   -2.9410 H   0  0  0  0  0  0  0  0  0  0  0  0
   13.7051   -2.0607   -4.0404 H   0  0  0  0  0  0  0  0  0  0  0  0
   13.9222   -3.6141   -5.9919 H   0  0  0  0  0  0  0  0  0  0  0  0
   13.9260   -4.9953   -4.8914 H   0  0  0  0  0  0  0  0  0  0  0  0
   15.9636   -4.0859   -3.7571 H   0  0  0  0  0  0  0  0  0  0  0  0
   15.9596   -2.7046   -4.8575 H   0  0  0  0  0  0  0  0  0  0  0  0
   16.1789   -4.2567   -6.8081 H   0  0  0  0  0  0  0  0  0  0  0  0
   16.1810   -5.6388   -5.7087 H   0  0  0  0  0  0  0  0  0  0  0  0
   18.2179   -4.7329   -4.5721 H   0  0  0  0  0  0  0  0  0  0  0  0
   18.2159   -3.3494   -5.6698 H   0  0  0  0  0  0  0  0  0  0  0  0
   18.4348   -4.8980   -7.6233 H   0  0  0  0  0  0  0  0  0  0  0  0
   18.4350   -6.2823   -6.5265 H   0  0  0  0  0  0  0  0  0  0  0  0
   20.4717   -5.3774   -5.3861 H   0  0  0  0  0  0  0  0  0  0  0  0
   20.4716   -3.9945   -6.4845 H   0  0  0  0  0  0  0  0  0  0  0  0
   20.6887   -5.5462   -8.4369 H   0  0  0  0  0  0  0  0  0  0  0  0
   20.6906   -6.9284   -7.3375 H   0  0  0  0  0  0  0  0  0  0  0  0
   22.7274   -6.0224   -6.2007 H   0  0  0  0  0  0  0  0  0  0  0  0
   22.7253   -4.6388   -7.2984 H   0  0  0  0  0  0  0  0  0  0  0  0
   22.9439   -6.1871   -9.2519 H   0  0  0  0  0  0  0  0  0  0  0  0
   22.9443   -7.5716   -8.1554 H   0  0  0  0  0  0  0  0  0  0  0  0
   24.9811   -6.6694   -7.0156 H   0  0  0  0  0  0  0  0  0  0  0  0
   24.9806   -5.2835   -8.1104 H   0  0  0  0  0  0  0  0  0  0  0  0
   25.1992   -6.8280  -10.0670 H   0  0  0  0  0  0  0  0  0  0  0  0
   25.1979   -8.2147   -8.9733 H   0  0  0  0  0  0  0  0  0  0  0  0
   27.2346   -7.3150   -7.8301 H   0  0  0  0  0  0  0  0  0  0  0  0
   27.2359   -5.9283   -8.9237 H   0  0  0  0  0  0  0  0  0  0  0  0
   27.4528   -7.4736  -10.8814 H   0  0  0  0  0  0  0  0  0  0  0  0
   27.4533   -8.8595   -9.7868 H   0  0  0  0  0  0  0  0  0  0  0  0
   29.4900   -7.9572   -8.6455 H   0  0  0  0  0  0  0  0  0  0  0  0
   29.4893   -6.5713   -9.7402 H   0  0  0  0  0  0  0  0  0  0  0  0
   29.7071   -8.1167  -11.6969 H   0  0  0  0  0  0  0  0  0  0  0  0
   29.7077   -9.5026  -10.6023 H   0  0  0  0  0  0  0  0  0  0  0  0
   31.7443   -8.6004   -9.4610 H   0  0  0  0  0  0  0  0  0  0  0  0
   31.7438   -7.2144  -10.5556 H   0  0  0  0  0  0  0  0  0  0  0  0
   31.9625   -8.7588  -12.5124 H   0  0  0  0  0  0  0  0  0  0  0  0
   31.9611  -10.1455  -11.4188 H   0  0  0  0  0  0  0  0  0  0  0  0
   33.9976   -9.2459  -10.2753 H   0  0  0  0  0  0  0  0  0  0  0  0
   33.9991   -7.8592  -11.3690 H   0  0  0  0  0  0  0  0  0  0  0  0
   34.2175   -9.4034  -13.3265 H   0  0  0  0  0  0  0  0  0  0  0  0
   34.2160  -10.7901  -12.2329 H   0  0  0  0  0  0  0  0  0  0  0  0
   36.2523   -9.8904  -11.0890 H   0  0  0  0  0  0  0  0  0  0  0  0
   36.2536   -8.5033  -12.1822 H   0  0  0  0  0  0  0  0  0  0  0  0
   36.4712  -10.0475  -14.1403 H   0  0  0  0  0  0  0  0  0  0  0  0
   36.4714  -11.4340  -13.0464 H   0  0  0  0  0  0  0  0  0  0  0  0
   38.5083  -10.5314  -11.9045 H   0  0  0  0  0  0  0  0  0  0  0  0
   38.5081   -9.1464  -13.0003 H   0  0  0  0  0  0  0  0  0  0  0  0
   38.7251  -10.6938  -14.9558 H   0  0  0  0  0  0  0  0  0  0  0  0
   38.7253  -12.0786  -13.8599 H   0  0  0  0  0  0  0  0  0  0  0  0
   40.7620  -11.1753  -12.7193 H   0  0  0  0  0  0  0  0  0  0  0  0
   40.7622   -9.7911  -13.8162 H   0  0  0  0  0  0  0  0  0  0  0  0
   40.9793  -11.3402  -15.7703 H   0  0  0  0  0  0  0  0  0  0  0  0
   40.9794  -12.7241  -14.6731 H   0  0  0  0  0  0  0  0  0  0  0  0
   43.0162  -11.8208  -13.5335 H   0  0  0  0  0  0  0  0  0  0  0  0
   43.0160  -10.4363  -14.6299 H   0  0  0  0  0  0  0  0  0  0  0  0
   43.2331  -11.9847  -16.5847 H   0  0  0  0  0  0  0  0  0  0  0  0
   43.2342  -13.3689  -15.4878 H   0  0  0  0  0  0  0  0  0  0  0  0
   45.2708  -12.4647  -14.3484 H   0  0  0  0  0  0  0  0  0  0  0  0
   45.2698  -11.0802  -15.4449 H   0  0  0  0  0  0  0  0  0  0  0  0
   45.4879  -12.6280  -17.3995 H   0  0  0  0  0  0  0  0  0  0  0  0
   45.4885  -14.0126  -16.3031 H   0  0  0  0  0  0  0  0  0  0  0  0
   47.5251  -13.1090  -15.1631 H   0  0  0  0  0  0  0  0  0  0  0  0
   47.5245  -11.7243  -16.2592 H   0  0  0  0  0  0  0  0  0  0  0  0
   47.7422  -13.2719  -18.2143 H   0  0  0  0  0  0  0  0  0  0  0  0
   47.7430  -14.6566  -17.1181 H   0  0  0  0  0  0  0  0  0  0  0  0
   49.7797  -13.7527  -15.9780 H   0  0  0  0  0  0  0  0  0  0  0  0
   49.7790  -12.3682  -17.0745 H   0  0  0  0  0  0  0  0  0  0  0  0
   49.9965  -13.9164  -19.0292 H   0  0  0  0  0  0  0  0  0  0  0  0
   49.9976  -15.3007  -17.9325 H   0  0  0  0  0  0  0  0  0  0  0  0
   52.0343  -14.3963  -16.7929 H   0  0  0  0  0  0  0  0  0  0  0  0
   52.0333  -13.0121  -17.8898 H   0  0  0  0  0  0  0  0  0  0  0  0
   52.2519  -14.5595  -19.8441 H   0  0  0  0  0  0  0  0  0  0  0  0
   52.2513  -15.9445  -18.7482 H   0  0  0  0  0  0  0  0  0  0  0  0
   54.2881  -15.0435  -17.6073 H   0  0  0  0  0  0  0  0  0  0  0  0
   54.2885  -13.6573  -18.7016 H   0  0  0  0  0  0  0  0  0  0  0  0
   54.5052  -15.2034  -20.6586 H   0  0  0  0  0  0  0  0  0  0  0  0
   54.5069  -16.5888  -19.5633 H   0  0  0  0  0  0  0  0  0  0  0  0
   56.5438  -15.6847  -18.4234 H   0  0  0  0  0  0  0  0  0  0  0  0
   56.5417  -14.2994  -19.5189 H   0  0  0  0  0  0  0  0  0  0  0  0
   56.7584  -15.8468  -21.4748 H   0  0  0  0  0  0  0  0  0  0  0  0
   56.7625  -17.2313  -20.3784 H   0  0  0  0  0  0  0  0  0  0  0  0
   58.7995  -16.3257  -19.2413 H   0  0  0  0  0  0  0  0  0  0  0  0
   58.7949  -14.9398  -20.3359 H   0  0  0  0  0  0  0  0  0  0  0  0
   59.0117  -16.4853  -22.2931 H   0  0  0  0  0  0  0  0  0  0  0  0
   59.0180  -17.8707  -21.1978 H   0  0  0  0  0  0  0  0  0  0  0  0
   61.0547  -16.9628  -20.0612 H   0  0  0  0  0  0  0  0  0  0  0  0
   61.0483  -15.5773  -21.1564 H   0  0  0  0  0  0  0  0  0  0  0  0
   61.2669  -17.1219  -23.1129 H   0  0  0  0  0  0  0  0  0  0  0  0
   61.2715  -18.5082  -22.0187 H   0  0  0  0  0  0  0  0  0  0  0  0
   63.3080  -17.6028  -20.8799 H   0  0  0  0  0  0  0  0  0  0  0  0
   63.3036  -16.2165  -21.9741 H   0  0  0  0  0  0  0  0  0  0  0  0
   63.5214  -17.7610  -23.9316 H   0  0  0  0  0  0  0  0  0  0  0  0
   63.5258  -19.1472  -22.8374 H   0  0  0  0  0  0  0  0  0  0  0  0
   65.5624  -18.2419  -21.6986 H   0  0  0  0  0  0  0  0  0  0  0  0
   65.5581  -16.8556  -22.7928 H   0  0  0  0  0  0  0  0  0  0  0  0
   65.7758  -18.4001  -24.7503 H   0  0  0  0  0  0  0  0  0  0  0  0
   65.7801  -19.7863  -23.6560 H   0  0  0  0  0  0  0  0  0  0  0  0
   67.8168  -18.8811  -22.5173 H   0  0  0  0  0  0  0  0  0  0  0  0
   67.8125  -17.4948  -23.6115 H   0  0  0  0  0  0  0  0  0  0  0  0
   68.0303  -19.0393  -25.5690 H   0  0  0  0  0  0  0  0  0  0  0  0
   68.0345  -20.4255  -24.4748 H   0  0  0  0  0  0  0  0  0  0  0  0
   70.0713  -19.5203  -23.3361 H   0  0  0  0  0  0  0  0  0  0  0  0
   70.0670  -18.1340  -24.4302 H   0  0  0  0  0  0  0  0  0  0  0  0
   70.2848  -19.6785  -26.3877 H   0  0  0  0  0  0  0  0  0  0  0  0
   70.2892  -21.0647  -25.2935 H   0  0  0  0  0  0  0  0  0  0  0  0
   72.3260  -20.1594  -24.1548 H   0  0  0  0  0  0  0  0  0  0  0  0
   72.3217  -18.7733  -25.2491 H   0  0  0  0  0  0  0  0  0  0  0  0
   72.5391  -20.3187  -27.2065 H   0  0  0  0  0  0  0  0  0  0  0  0
   72.5454  -21.7041  -26.1113 H   0  0  0  0  0  0  0  0  0  0  0  0
   74.5825  -20.7950  -24.9744 H   0  0  0  0  0  0  0  0  0  0  0  0
   74.5759  -19.4105  -26.0707 H   0  0  0  0  0  0  0  0  0  0  0  0
   74.7957  -20.9568  -28.0255 H   0  0  0  0  0  0  0  0  0  0  0  0
   74.8015  -22.3415  -26.9310 H   0  0  0  0  0  0  0  0  0  0  0  0
   76.8407  -21.4351  -25.7960 H   0  0  0  0  0  0  0  0  0  0  0  0
   76.8336  -20.0497  -26.8909 H   0  0  0  0  0  0  0  0  0  0  0  0
   77.0526  -21.5950  -28.8513 H   0  0  0  0  0  0  0  0  0  0  0  0
   77.0600  -22.9810  -27.7535 H   0  0  0  0  0  0  0  0  0  0  0  0
   79.0960  -22.0728  -26.6172 H   0  0  0  0  0  0  0  0  0  0  0  0
   79.0901  -20.6873  -27.7122 H   0  0  0  0  0  0  0  0  0  0  0  0
   79.3131  -22.2326  -29.6687 H   0  0  0  0  0  0  0  0  0  0  0  0
   79.3175  -23.6183  -28.5747 H   0  0  0  0  0  0  0  0  0  0  0  0
   81.3567  -22.7144  -27.4378 H   0  0  0  0  0  0  0  0  0  0  0  0
   81.3522  -21.3285  -28.5316 H   0  0  0  0  0  0  0  0  0  0  0  0
   81.5784  -22.8728  -30.4888 H   0  0  0  0  0  0  0  0  0  0  0  0
   81.5830  -24.2585  -29.3951 H   0  0  0  0  0  0  0  0  0  0  0  0
   83.6258  -23.3577  -28.2606 H   0  0  0  0  0  0  0  0  0  0  0  0
   83.6211  -21.9703  -29.3529 H   0  0  0  0  0  0  0  0  0  0  0  0
   83.8443  -23.5139  -31.3131 H   0  0  0  0  0  0  0  0  0  0  0  0
   83.8511  -24.9004  -30.2202 H   0  0  0  0  0  0  0  0  0  0  0  0
   85.9108  -24.0084  -29.1022 H   0  0  0  0  0  0  0  0  0  0  0  0
   85.9038  -22.6219  -30.1951 H   0  0  0  0  0  0  0  0  0  0  0  0
   86.1561  -25.5522  -31.0552 H   0  0  0  0  0  0  0  0  0  0  0  0
   87.4727  -24.3658  -30.9912 H   0  0  0  0  0  0  0  0  0  0  0  0
   86.1492  -24.1592  -32.1535 H   0  0  0  0  0  0  0  0  0  0  0  0
  1  2  2  0  0  0  0
  2  3  1  0  0  0  0
  2  4  1  0  0  0  0
  3 79  1  0  0  0  0
  3 80  1  0  0  0  0
  3 81  1  0  0  0  0
  4  5  1  0  0  0  0
  4 82  1  0  0  0  0
  4 83  1  0  0  0  0
  5  6  1  0  0  0  0
  6  7  1  0  0  0  0
  6 84  1  0  0  0  0
  6 85  1  0  0  0  0
  7  8  1  0  0  0  0
  7 86  1  0  0  0  0
  7 87  1  0  0  0  0
  8  9  1  0  0  0  0
  8 88  1  0  0  0  0
  8 89  1  0  0  0  0
  9 10  1  0  0  0  0
  9 90  1  0  0  0  0
  9 91  1  0  0  0  0
 10 11  1  0  0  0  0
 10 92  1  0  0  0  0
 10 93  1  0  0  0  0
 11 12  1  0  0  0  0
 11 94  1  0  0  0  0
 11 95  1  0  0  0  0
 12 13  1  0  0  0  0
 12 96  1  0  0  0  0
 12 97  1  0  0  0  0
 13 14  1  0  0  0  0
 13 98  1  0  0  0  0
 13 99  1  0  0  0  0
 14 15  1  0  0  0  0
 14100  1  0  0  0  0
 14101  1  0  0  0  0
 15 16  1  0  0  0  0
 15102  1  0  0  0  0
 15103  1  0  0  0  0
 16 17  1  0  0  0  0
 16104  1  0  0  0  0
 16105  1  0  0  0  0
 17 18  1  0  0  0  0
 17106  1  0  0  0  0
 17107  1  0  0  0  0
 18 19  1  0  0  0  0
 18108  1  0  0  0  0
 18109  1  0  0  0  0
 19 20  1  0  0  0  0
 19110  1  0  0  0  0
 19111  1  0  0  0  0
 20 21  1  0  0  0  0
 20112  1  0  0  0  0
 20113  1  0  0  0  0
 21 22  1  0  0  0  0
 21114  1  0  0  0  0
 21115  1  0  0  0  0
 22 23  1  0  0  0  0
 22116  1  0  0  0  0
 22117  1  0  0  0  0
 23 24  1  0  0  0  0
 23118  1  0  0  0  0
 23119  1  0  0  0  0
 24 25  1  0  0  0  0
 24120  1  0  0  0  0
 24121  1  0  0  0  0
 25 26  1  0  0  0  0
 25122  1  0  0  0  0
 25123  1  0  0  0  0
 26 27  1  0  0  0  0
 26124  1  0  0  0  0
 26125  1  0  0  0  0
 27 28  1  0  0  0  0
 27126  1  0  0  0  0
 27127  1  0  0  0  0
 28 29  1  0  0  0  0
 28128  1  0  0  0  0
 28129  1  0  0  0  0
 29 30  1  0  0  0  0
 29130  1  0  0  0  0
 29131  1  0  0  0  0
 30 31  1  0  0  0  0
 30132  1  0  0  0  0
 30133  1  0  0  0  0
 31 32  1  0  0  0  0
 31134  1  0  0  0  0
 31135  1  0  0  0  0
 32 33  1  0  0  0  0
 32136  1  0  0  0  0
 32137  1  0  0  0  0
 33 34  1  0  0  0  0
 33138  1  0  0  0  0
 33139  1  0  0  0  0
 34 35  1  0  0  0  0
 34140  1  0  0  0  0
 34141  1  0  0  0  0
 35 36  1  0  0  0  0
 35142  1  0  0  0  0
 35143  1  0  0  0  0
 36 37  1  0  0  0  0
 36144  1  0  0  0  0
 36145  1  0  0  0  0
 37 38  1  0  0  0  0
 37146  1  0  0  0  0
 37147  1  0  0  0  0
 38 39  1  0  0  0  0
 38148  1  0  0  0  0
 38149  1  0  0  0  0
 39 40  1  0  0  0  0
 39150  1  0  0  0  0
 39151  1  0  0  0  0
 40 41  1  0  0  0  0
 40152  1  0  0  0  0
 40153  1  0  0  0  0
 41 42  1  0  0  0  0
 41154  1  0  0  0  0
 41155  1  0  0  0  0
 42 43  1  0  0  0  0
 42156  1  0  0  0  0
 42157  1  0  0  0  0
 43 44  1  0  0  0  0
 43158  1  0  0  0  0
 43159  1  0  0  0  0
 44 45  1  0  0  0  0
 44160  1  0  0  0  0
 44161  1  0  0  0  0
 45 46  1  0  0  0  0
 45162  1  0  0  0  0
 45163  1  0  0  0  0
 46 47  1  0  0  0  0
 46164  1  0  0  0  0
 46165  1  0  0  0  0
 47 48  1  0  0  0  0
 47166  1  0  0  0  0
 47167  1  0  0  0  0
 48 49  1  0  0  0  0
 48168  1  0  0  0  0
 48169  1  0  0  0  0
 49 50  1  0  0  0  0
 49170  1  0  0  0  0
 49171  1  0  0  0  0
 50 51  1  0  0  0  0
 50172  1  0  0  0  0
 50173  1  0  0  0  0
 51 52  1  0  0  0  0
 51174  1  0  0  0  0
 51175  1  0  0  0  0
 52 53  1  0  0  0  0
 52176  1  0  0  0  0
 52177  1  0  0  0  0
 53 54  1  0  0  0  0
 53178  1  0  0  0  0
 53179  1  0  0  0  0
 54 55  1  0  0  0  0
 54180  1  0  0  0  0
 54181  1  0  0  0  0
 55 56  1  0  0  0  0
 55182  1  0  0  0  0
 55183  1  0  0  0  0
 56 57  1  0  0  0  0
 56184  1  0  0  0  0
 56185  1  0  0  0  0
 57 58  1  0  0  0  0
 57186  1  0  0  0  0
 57187  1  0  0  0  0
 58 59  1  0  0  0  0
 58188  1  0  0  0  0
 58189  1  0  0  0  0
 59 60  1  0  0  0  0
 59190  1  0  0  0  0
 59191  1  0  0  0  0
 60 61  1  0  0  0  0
 60192  1  0  0  0  0
 60193  1  0  0  0  0
 61 62  1  0  0  0  0
 61194  1  0  0  0  0
 61195  1  0  0  0  0
 62 63  1  0  0  0  0
 62196  1  0  0  0  0
 62197  1  0  0  0  0
 63 64  1  0  0  0  0
 63198  1  0  0  0  0
 63199  1  0  0  0  0
 64 65  1  0  0  0  0
 64200  1  0  0  0  0
 64201  1  0  0  0  0
 65 66  1  0  0  0  0
 65202  1  0  0  0  0
 65203  1  0  0  0  0
 66 67  1  0  0  0  0
 66204  1  0  0  0  0
 66205  1  0  0  0  0
 67 68  1  0  0  0  0
 67206  1  0  0  0  0
 67207  1  0  0  0  0
 68 69  1  0  0  0  0
 68208  1  0  0  0  0
 68209  1  0  0  0  0
 69 70  1  0  0  0  0
 69210  1  0  0  0  0
 69211  1  0  0  0  0
 70 71  1  0  0  0  0
 70212  1  0  0  0  0
 70213  1  0  0  0  0
 71 72  1  0  0  0  0
 71214  1  0  0  0  0
 71215  1  0  0  0  0
 72 73  1  0  0  0  0
 72216  1  0  0  0  0
 72217  1  0  0  0  0
 73 74  1  0  0  0  0
 73218  1  0  0  0  0
 73219  1  0  0  0  0
 74 75  1  0  0  0  0
 74220  1  0  0  0  0
 74221  1  0  0  0  0
 75 76  1  0  0  0  0
 75222  1  0  0  0  0
 75223  1  0  0  0  0
 76 77  1  0  0  0  0
 76224  1  0  0  0  0
 76225  1  0  0  0  0
 77 78  1  0  0  0  0
 77226  1  0  0  0  0
 77227  1  0  0  0  0
 78228  1  0  0  0  0
 78229  1  0  0  0  0
 78230  1  0  0  0  0
M  END
$$$$
