
 OpenBabel04232216533D

198197  0  0  0  0  0  0  0  0999 V2000
   39.5611  -52.7103   52.6708 C   0  0  0  0  0  0  0  0  0  0  0  0
   39.0783  -51.4752   51.9363 C   0  0  0  0  0  0  0  0  0  0  0  0
   39.5211  -51.5185   50.4804 C   0  0  0  0  0  0  0  0  0  0  0  0
   39.0365  -50.2819   49.7384 C   0  0  0  0  0  0  0  0  0  0  0  0
   39.4795  -50.3312   48.2827 C   0  0  0  0  0  0  0  0  0  0  0  0
   38.9938  -49.0950   47.5375 C   0  0  0  0  0  0  0  0  0  0  0  0
   39.4453  -49.1864   46.1629 N   0  0  0  0  0  0  0  0  0  0  0  0
   38.9894  -48.0027   45.4858 N   0  0  0  0  0  0  0  0  0  0  0  0
   39.3903  -48.0244   44.1247 N   0  0  0  0  0  0  0  0  0  0  0  0
   38.9303  -46.8807   43.4447 N   0  0  0  0  0  0  0  0  0  0  0  0
   39.3435  -46.9655   42.1113 N   0  0  0  0  0  0  0  0  0  0  0  0
   38.8777  -45.8345   41.4030 N   0  0  0  0  0  0  0  0  0  0  0  0
   39.2914  -45.8775   40.0421 N   0  0  0  0  0  0  0  0  0  0  0  0
   38.8509  -44.7025   39.3567 N   0  0  0  0  0  0  0  0  0  0  0  0
   39.2747  -44.7173   38.0054 N   0  0  0  0  0  0  0  0  0  0  0  0
   38.8152  -43.5711   37.3283 N   0  0  0  0  0  0  0  0  0  0  0  0
   39.2229  -43.6641   35.9932 N   0  0  0  0  0  0  0  0  0  0  0  0
   38.7641  -42.5335   35.2782 N   0  0  0  0  0  0  0  0  0  0  0  0
   39.1957  -42.5651   33.9392 N   0  0  0  0  0  0  0  0  0  0  0  0
   38.7551  -41.3847   33.2841 N   0  0  0  0  0  0  0  0  0  0  0  0
   39.1653  -41.4159   31.9144 N   0  0  0  0  0  0  0  0  0  0  0  0
   38.6899  -40.2749   31.1992 N   0  0  0  0  0  0  0  0  0  0  0  0
   39.1184  -40.3190   29.8461 N   0  0  0  0  0  0  0  0  0  0  0  0
   38.6824  -39.1528   29.1519 N   0  0  0  0  0  0  0  0  0  0  0  0
   39.0941  -39.2356   27.8036 N   0  0  0  0  0  0  0  0  0  0  0  0
   38.6260  -38.0895   27.0863 N   0  0  0  0  0  0  0  0  0  0  0  0
   39.0565  -38.0943   25.7355 N   0  0  0  0  0  0  0  0  0  0  0  0
   38.6011  -36.9357   25.0803 N   0  0  0  0  0  0  0  0  0  0  0  0
   38.9941  -37.0125   23.7336 N   0  0  0  0  0  0  0  0  0  0  0  0
   38.5532  -35.8515   23.0471 N   0  0  0  0  0  0  0  0  0  0  0  0
   38.9960  -35.8825   21.6965 N   0  0  0  0  0  0  0  0  0  0  0  0
   38.5384  -34.7375   20.9660 N   0  0  0  0  0  0  0  0  0  0  0  0
   38.9567  -34.8033   19.6155 N   0  0  0  0  0  0  0  0  0  0  0  0
   38.4982  -33.6514   18.9418 N   0  0  0  0  0  0  0  0  0  0  0  0
   38.9103  -33.6783   17.5932 N   0  0  0  0  0  0  0  0  0  0  0  0
   38.4747  -32.4927   16.9419 N   0  0  0  0  0  0  0  0  0  0  0  0
   39.0214  -31.3294   17.5112 N   0  0  0  0  0  0  0  0  0  0  0  0
   38.5580  -30.1949   16.8345 N   0  0  0  0  0  0  0  0  0  0  0  0
   39.0739  -29.0472   17.4426 N   0  0  0  0  0  0  0  0  0  0  0  0
   38.6567  -27.9033   16.7406 N   0  0  0  0  0  0  0  0  0  0  0  0
   39.1691  -26.7134   17.3490 N   0  0  0  0  0  0  0  0  0  0  0  0
   40.6078  -26.7143   17.3298 N   0  0  0  0  0  0  0  0  0  0  0  0
   41.2320  -25.3098   17.9520 S   0  0  0  0  0  0  0  0  0  0  0  0
   42.8915  -25.4282   17.8915 N   0  0  0  0  0  0  0  0  0  0  0  0
   43.4722  -25.4114   16.3327 S   0  0  0  0  0  0  0  0  0  0  0  0
   45.3142  -25.4685   16.4833 C   0  0  0  0  0  0  0  0  0  0  0  0
   45.8776  -26.9571   17.3795 S   0  0  0  0  0  0  0  0  0  0  0  0
   47.7375  -26.8830   17.3191 C   0  0  0  0  0  0  0  0  0  0  0  0
   48.3205  -28.3833   18.2655 S   0  0  0  0  0  0  0  0  0  0  0  0
   50.1429  -28.2006   18.2541 C   0  0  0  0  0  0  0  0  0  0  0  0
   50.6319  -26.6648   19.1141 S   0  0  0  0  0  0  0  0  0  0  0  0
   52.4471  -26.6952   18.9772 C   0  0  0  0  0  0  0  0  0  0  0  0
   52.9063  -26.7279   17.5300 C   0  0  0  0  0  0  0  0  0  0  0  0
   54.4256  -26.6965   17.4381 C   0  0  0  0  0  0  0  0  0  0  0  0
   54.8556  -26.7574   15.9802 C   0  0  0  0  0  0  0  0  0  0  0  0
   56.3698  -26.7311   15.8804 C   0  0  0  0  0  0  0  0  0  0  0  0
   56.7960  -26.7927   14.4249 C   0  0  0  0  0  0  0  0  0  0  0  0
   58.3099  -26.7673   14.3283 C   0  0  0  0  0  0  0  0  0  0  0  0
   58.7355  -26.8288   12.8737 C   0  0  0  0  0  0  0  0  0  0  0  0
   60.2491  -26.8053   12.7779 C   0  0  0  0  0  0  0  0  0  0  0  0
   60.6742  -26.8668   11.3234 C   0  0  0  0  0  0  0  0  0  0  0  0
   62.1881  -26.8433   11.2285 C   0  0  0  0  0  0  0  0  0  0  0  0
   62.6127  -26.9048    9.7734 C   0  0  0  0  0  0  0  0  0  0  0  0
   64.1261  -26.8814    9.6779 C   0  0  0  0  0  0  0  0  0  0  0  0
   64.5511  -26.9428    8.2235 C   0  0  0  0  0  0  0  0  0  0  0  0
   66.0645  -26.9194    8.1280 C   0  0  0  0  0  0  0  0  0  0  0  0
   66.4895  -26.9808    6.6735 C   0  0  0  0  0  0  0  0  0  0  0  0
   68.0029  -26.9574    6.5781 C   0  0  0  0  0  0  0  0  0  0  0  0
   68.4279  -27.0188    5.1236 C   0  0  0  0  0  0  0  0  0  0  0  0
   69.9412  -26.9934    5.0280 C   0  0  0  0  0  0  0  0  0  0  0  0
   70.3663  -27.0548    3.5736 C   0  0  0  0  0  0  0  0  0  0  0  0
   71.8796  -27.0293    3.4779 C   0  0  0  0  0  0  0  0  0  0  0  0
   72.3044  -27.0908    2.0235 C   0  0  0  0  0  0  0  0  0  0  0  0
   73.8181  -27.0653    1.9278 C   0  0  0  0  0  0  0  0  0  0  0  0
   74.2434  -27.1268    0.4732 C   0  0  0  0  0  0  0  0  0  0  0  0
   75.7571  -27.1033    0.3774 C   0  0  0  0  0  0  0  0  0  0  0  0
   76.1837  -27.1647   -1.0774 C   0  0  0  0  0  0  0  0  0  0  0  0
   77.6988  -27.1413   -1.1738 C   0  0  0  0  0  0  0  0  0  0  0  0
   78.1281  -27.2008   -2.6294 C   0  0  0  0  0  0  0  0  0  0  0  0
   79.6453  -27.1797   -2.7341 C   0  0  0  0  0  0  0  0  0  0  0  0
   80.0706  -27.2390   -4.1871 C   0  0  0  0  0  0  0  0  0  0  0  0
   39.2429  -52.6786   53.7159 H   0  0  0  0  0  0  0  0  0  0  0  0
   40.6536  -52.7732   52.6428 H   0  0  0  0  0  0  0  0  0  0  0  0
   39.1531  -53.6163   52.2114 H   0  0  0  0  0  0  0  0  0  0  0  0
   39.4789  -50.5778   52.4221 H   0  0  0  0  0  0  0  0  0  0  0  0
   37.9850  -51.4173   51.9927 H   0  0  0  0  0  0  0  0  0  0  0  0
   39.1233  -52.4195   49.9971 H   0  0  0  0  0  0  0  0  0  0  0  0
   40.6152  -51.5782   50.4258 H   0  0  0  0  0  0  0  0  0  0  0  0
   39.4361  -49.3807   50.2194 H   0  0  0  0  0  0  0  0  0  0  0  0
   37.9427  -50.2224   49.7914 H   0  0  0  0  0  0  0  0  0  0  0  0
   39.0820  -51.2371   47.8079 H   0  0  0  0  0  0  0  0  0  0  0  0
   40.5747  -50.3927   48.2348 H   0  0  0  0  0  0  0  0  0  0  0  0
   39.4091  -48.2024   48.0246 H   0  0  0  0  0  0  0  0  0  0  0  0
   37.8998  -49.0328   47.5951 H   0  0  0  0  0  0  0  0  0  0  0  0
   39.0309  -49.9845   45.6886 H   0  0  0  0  0  0  0  0  0  0  0  0
   39.3700  -47.2033   46.0038 H   0  0  0  0  0  0  0  0  0  0  0  0
   39.0090  -48.8553   43.6562 H   0  0  0  0  0  0  0  0  0  0  0  0
   39.3372  -46.0403   43.8409 H   0  0  0  0  0  0  0  0  0  0  0  0
   38.9493  -47.8286   41.7439 H   0  0  0  0  0  0  0  0  0  0  0  0
   39.2788  -44.9906   41.8131 H   0  0  0  0  0  0  0  0  0  0  0  0
   38.9043  -46.7244   39.6301 H   0  0  0  0  0  0  0  0  0  0  0  0
   39.2343  -43.8974   39.8631 H   0  0  0  0  0  0  0  0  0  0  0  0
   38.8918  -45.5338   37.5233 H   0  0  0  0  0  0  0  0  0  0  0  0
   39.2165  -42.7339   37.7390 H   0  0  0  0  0  0  0  0  0  0  0  0
   38.8370  -44.5362   35.6272 H   0  0  0  0  0  0  0  0  0  0  0  0
   39.1471  -41.6920   35.7164 H   0  0  0  0  0  0  0  0  0  0  0  0
   38.7938  -43.3584   33.4433 H   0  0  0  0  0  0  0  0  0  0  0  0
   39.1353  -40.5846   33.7992 H   0  0  0  0  0  0  0  0  0  0  0  0
   38.7951  -42.2777   31.4908 H   0  0  0  0  0  0  0  0  0  0  0  0
   39.0796  -39.4109   31.5857 H   0  0  0  0  0  0  0  0  0  0  0  0
   38.7295  -41.1180   29.3445 H   0  0  0  0  0  0  0  0  0  0  0  0
   39.0743  -38.3084   29.5658 H   0  0  0  0  0  0  0  0  0  0  0  0
   38.7081  -40.1086   27.4281 H   0  0  0  0  0  0  0  0  0  0  0  0
   39.0058  -37.2367   27.5084 H   0  0  0  0  0  0  0  0  0  0  0  0
   38.6631  -38.8782   25.2201 H   0  0  0  0  0  0  0  0  0  0  0  0
   39.0028  -36.0986   25.5007 H   0  0  0  0  0  0  0  0  0  0  0  0
   38.6229  -37.8827   23.3432 H   0  0  0  0  0  0  0  0  0  0  0  0
   38.9321  -35.0379   23.5449 H   0  0  0  0  0  0  0  0  0  0  0  0
   38.6272  -36.7397   21.2708 H   0  0  0  0  0  0  0  0  0  0  0  0
   38.9152  -33.8666   21.3517 H   0  0  0  0  0  0  0  0  0  0  0  0
   38.5471  -35.5921   19.1218 H   0  0  0  0  0  0  0  0  0  0  0  0
   38.8792  -32.8010   19.3553 H   0  0  0  0  0  0  0  0  0  0  0  0
   38.4963  -34.4822   17.1321 H   0  0  0  0  0  0  0  0  0  0  0  0
   37.4608  -32.4280   16.9758 H   0  0  0  0  0  0  0  0  0  0  0  0
   40.0348  -31.3611   17.4655 H   0  0  0  0  0  0  0  0  0  0  0  0
   37.5448  -30.1670   16.8731 H   0  0  0  0  0  0  0  0  0  0  0  0
   40.0936  -29.0582   17.3998 H   0  0  0  0  0  0  0  0  0  0  0  0
   37.6369  -27.8893   16.7661 H   0  0  0  0  0  0  0  0  0  0  0  0
   38.8560  -26.6998   18.3168 H   0  0  0  0  0  0  0  0  0  0  0  0
   40.8859  -26.8260   16.3597 H   0  0  0  0  0  0  0  0  0  0  0  0
   43.2001  -26.2256   18.4404 H   0  0  0  0  0  0  0  0  0  0  0  0
   45.6862  -24.5428   16.9348 H   0  0  0  0  0  0  0  0  0  0  0  0
   45.6928  -25.5059   15.4527 H   0  0  0  0  0  0  0  0  0  0  0  0
   48.0836  -25.9645   17.8023 H   0  0  0  0  0  0  0  0  0  0  0  0
   48.1006  -26.9362   16.2883 H   0  0  0  0  0  0  0  0  0  0  0  0
   50.4935  -28.2586   17.2195 H   0  0  0  0  0  0  0  0  0  0  0  0
   50.5633  -29.0619   18.7918 H   0  0  0  0  0  0  0  0  0  0  0  0
   52.8574  -27.5357   19.5464 H   0  0  0  0  0  0  0  0  0  0  0  0
   52.8218  -25.7785   19.4522 H   0  0  0  0  0  0  0  0  0  0  0  0
   52.4928  -25.8734   16.9797 H   0  0  0  0  0  0  0  0  0  0  0  0
   52.5560  -27.6419   17.0419 H   0  0  0  0  0  0  0  0  0  0  0  0
   54.8509  -27.5482   17.9833 H   0  0  0  0  0  0  0  0  0  0  0  0
   54.8152  -25.7827   17.9025 H   0  0  0  0  0  0  0  0  0  0  0  0
   54.4317  -25.9087   15.4293 H   0  0  0  0  0  0  0  0  0  0  0  0
   54.4691  -27.6721   15.5133 H   0  0  0  0  0  0  0  0  0  0  0  0
   56.7953  -27.5803   16.4289 H   0  0  0  0  0  0  0  0  0  0  0  0
   56.7584  -25.8159   16.3436 H   0  0  0  0  0  0  0  0  0  0  0  0
   56.3730  -25.9430   13.8749 H   0  0  0  0  0  0  0  0  0  0  0  0
   56.4081  -27.7073   13.9598 H   0  0  0  0  0  0  0  0  0  0  0  0
   58.7338  -27.6171   14.8774 H   0  0  0  0  0  0  0  0  0  0  0  0
   58.6989  -25.8528   14.7927 H   0  0  0  0  0  0  0  0  0  0  0  0
   58.3133  -25.9783   12.3244 H   0  0  0  0  0  0  0  0  0  0  0  0
   58.3461  -27.7427   12.4085 H   0  0  0  0  0  0  0  0  0  0  0  0
   60.6716  -27.6559   13.3269 H   0  0  0  0  0  0  0  0  0  0  0  0
   60.6389  -25.8914   13.2429 H   0  0  0  0  0  0  0  0  0  0  0  0
   60.2520  -26.0162   10.7743 H   0  0  0  0  0  0  0  0  0  0  0  0
   60.2846  -27.7807   10.8584 H   0  0  0  0  0  0  0  0  0  0  0  0
   62.6100  -27.6939   11.7769 H   0  0  0  0  0  0  0  0  0  0  0  0
   62.5774  -25.9295   11.6928 H   0  0  0  0  0  0  0  0  0  0  0  0
   62.1904  -26.0543    9.2244 H   0  0  0  0  0  0  0  0  0  0  0  0
   62.2230  -27.8187    9.3084 H   0  0  0  0  0  0  0  0  0  0  0  0
   64.5484  -27.7319   10.2270 H   0  0  0  0  0  0  0  0  0  0  0  0
   64.5158  -25.9675   10.1429 H   0  0  0  0  0  0  0  0  0  0  0  0
   64.1288  -26.0923    7.6744 H   0  0  0  0  0  0  0  0  0  0  0  0
   64.1614  -27.8567    7.7585 H   0  0  0  0  0  0  0  0  0  0  0  0
   66.4868  -27.7699    8.6770 H   0  0  0  0  0  0  0  0  0  0  0  0
   66.4542  -26.0055    8.5929 H   0  0  0  0  0  0  0  0  0  0  0  0
   66.0672  -26.1303    6.1245 H   0  0  0  0  0  0  0  0  0  0  0  0
   66.0998  -27.8947    6.2086 H   0  0  0  0  0  0  0  0  0  0  0  0
   68.4253  -27.8079    7.1271 H   0  0  0  0  0  0  0  0  0  0  0  0
   68.3925  -26.0435    7.0430 H   0  0  0  0  0  0  0  0  0  0  0  0
   68.0045  -26.1690    4.5742 H   0  0  0  0  0  0  0  0  0  0  0  0
   68.0394  -27.9333    4.6590 H   0  0  0  0  0  0  0  0  0  0  0  0
   70.3647  -27.8431    5.5774 H   0  0  0  0  0  0  0  0  0  0  0  0
   70.3297  -26.0788    5.4926 H   0  0  0  0  0  0  0  0  0  0  0  0
   69.9427  -26.2051    3.0242 H   0  0  0  0  0  0  0  0  0  0  0  0
   69.9778  -27.9694    3.1090 H   0  0  0  0  0  0  0  0  0  0  0  0
   72.3031  -27.8791    4.0273 H   0  0  0  0  0  0  0  0  0  0  0  0
   72.2681  -26.1148    3.9426 H   0  0  0  0  0  0  0  0  0  0  0  0
   71.8811  -26.2410    1.4741 H   0  0  0  0  0  0  0  0  0  0  0  0
   71.9161  -28.0054    1.5589 H   0  0  0  0  0  0  0  0  0  0  0  0
   74.2414  -27.9151    2.4773 H   0  0  0  0  0  0  0  0  0  0  0  0
   74.2065  -26.1508    2.3925 H   0  0  0  0  0  0  0  0  0  0  0  0
   73.8207  -26.2762   -0.0756 H   0  0  0  0  0  0  0  0  0  0  0  0
   73.8535  -28.0407    0.0084 H   0  0  0  0  0  0  0  0  0  0  0  0
   76.1790  -27.9539    0.9269 H   0  0  0  0  0  0  0  0  0  0  0  0
   76.1463  -26.1894    0.8429 H   0  0  0  0  0  0  0  0  0  0  0  0
   75.7604  -26.3142   -1.6259 H   0  0  0  0  0  0  0  0  0  0  0  0
   75.7930  -28.0785   -1.5419 H   0  0  0  0  0  0  0  0  0  0  0  0
   78.1191  -27.9928   -0.6246 H   0  0  0  0  0  0  0  0  0  0  0  0
   78.0868  -26.2281   -0.7064 H   0  0  0  0  0  0  0  0  0  0  0  0
   77.7033  -26.3491   -3.1751 H   0  0  0  0  0  0  0  0  0  0  0  0
   77.7335  -28.1128   -3.0943 H   0  0  0  0  0  0  0  0  0  0  0  0
   80.0689  -28.0319   -2.1900 H   0  0  0  0  0  0  0  0  0  0  0  0
   80.0388  -26.2673   -2.2709 H   0  0  0  0  0  0  0  0  0  0  0  0
   79.7018  -28.1552   -4.6592 H   0  0  0  0  0  0  0  0  0  0  0  0
   81.1605  -27.2239   -4.2633 H   0  0  0  0  0  0  0  0  0  0  0  0
   79.6716  -26.3829   -4.7405 H   0  0  0  0  0  0  0  0  0  0  0  0
  1  2  1  0  0  0  0
  1 82  1  0  0  0  0
  1 83  1  0  0  0  0
  1 84  1  0  0  0  0
  2  3  1  0  0  0  0
  2 85  1  0  0  0  0
  2 86  1  0  0  0  0
  3  4  1  0  0  0  0
  3 87  1  0  0  0  0
  3 88  1  0  0  0  0
  4  5  1  0  0  0  0
  4 89  1  0  0  0  0
  4 90  1  0  0  0  0
  5  6  1  0  0  0  0
  5 91  1  0  0  0  0
  5 92  1  0  0  0  0
  6  7  1  0  0  0  0
  6 93  1  0  0  0  0
  6 94  1  0  0  0  0
  7  8  1  0  0  0  0
  7 95  1  0  0  0  0
  8  9  1  0  0  0  0
  8 96  1  0  0  0  0
  9 10  1  0  0  0  0
  9 97  1  0  0  0  0
 10 11  1  0  0  0  0
 10 98  1  0  0  0  0
 11 12  1  0  0  0  0
 11 99  1  0  0  0  0
 12 13  1  0  0  0  0
 12100  1  0  0  0  0
 13 14  1  0  0  0  0
 13101  1  0  0  0  0
 14 15  1  0  0  0  0
 14102  1  0  0  0  0
 15 16  1  0  0  0  0
 15103  1  0  0  0  0
 16 17  1  0  0  0  0
 16104  1  0  0  0  0
 17 18  1  0  0  0  0
 17105  1  0  0  0  0
 18 19  1  0  0  0  0
 18106  1  0  0  0  0
 19 20  1  0  0  0  0
 19107  1  0  0  0  0
 20 21  1  0  0  0  0
 20108  1  0  0  0  0
 21 22  1  0  0  0  0
 21109  1  0  0  0  0
 22 23  1  0  0  0  0
 22110  1  0  0  0  0
 23 24  1  0  0  0  0
 23111  1  0  0  0  0
 24 25  1  0  0  0  0
 24112  1  0  0  0  0
 25 26  1  0  0  0  0
 25113  1  0  0  0  0
 26 27  1  0  0  0  0
 26114  1  0  0  0  0
 27 28  1  0  0  0  0
 27115  1  0  0  0  0
 28 29  1  0  0  0  0
 28116  1  0  0  0  0
 29 30  1  0  0  0  0
 29117  1  0  0  0  0
 30 31  1  0  0  0  0
 30118  1  0  0  0  0
 31 32  1  0  0  0  0
 31119  1  0  0  0  0
 32 33  1  0  0  0  0
 32120  1  0  0  0  0
 33 34  1  0  0  0  0
 33121  1  0  0  0  0
 34 35  1  0  0  0  0
 34122  1  0  0  0  0
 35 36  1  0  0  0  0
 35123  1  0  0  0  0
 36 37  1  0  0  0  0
 36124  1  0  0  0  0
 37 38  1  0  0  0  0
 37125  1  0  0  0  0
 38 39  1  0  0  0  0
 38126  1  0  0  0  0
 39 40  1  0  0  0  0
 39127  1  0  0  0  0
 40 41  1  0  0  0  0
 40128  1  0  0  0  0
 41 42  1  0  0  0  0
 41129  1  0  0  0  0
 42 43  1  0  0  0  0
 42130  1  0  0  0  0
 43 44  1  0  0  0  0
 44 45  1  0  0  0  0
 44131  1  0  0  0  0
 45 46  1  0  0  0  0
 46 47  1  0  0  0  0
 46132  1  0  0  0  0
 46133  1  0  0  0  0
 47 48  1  0  0  0  0
 48 49  1  0  0  0  0
 48134  1  0  0  0  0
 48135  1  0  0  0  0
 49 50  1  0  0  0  0
 50 51  1  0  0  0  0
 50136  1  0  0  0  0
 50137  1  0  0  0  0
 51 52  1  0  0  0  0
 52 53  1  0  0  0  0
 52138  1  0  0  0  0
 52139  1  0  0  0  0
 53 54  1  0  0  0  0
 53140  1  0  0  0  0
 53141  1  0  0  0  0
 54 55  1  0  0  0  0
 54142  1  0  0  0  0
 54143  1  0  0  0  0
 55 56  1  0  0  0  0
 55144  1  0  0  0  0
 55145  1  0  0  0  0
 56 57  1  0  0  0  0
 56146  1  0  0  0  0
 56147  1  0  0  0  0
 57 58  1  0  0  0  0
 57148  1  0  0  0  0
 57149  1  0  0  0  0
 58 59  1  0  0  0  0
 58150  1  0  0  0  0
 58151  1  0  0  0  0
 59 60  1  0  0  0  0
 59152  1  0  0  0  0
 59153  1  0  0  0  0
 60 61  1  0  0  0  0
 60154  1  0  0  0  0
 60155  1  0  0  0  0
 61 62  1  0  0  0  0
 61156  1  0  0  0  0
 61157  1  0  0  0  0
 62 63  1  0  0  0  0
 62158  1  0  0  0  0
 62159  1  0  0  0  0
 63 64  1  0  0  0  0
 63160  1  0  0  0  0
 63161  1  0  0  0  0
 64 65  1  0  0  0  0
 64162  1  0  0  0  0
 64163  1  0  0  0  0
 65 66  1  0  0  0  0
 65164  1  0  0  0  0
 65165  1  0  0  0  0
 66 67  1  0  0  0  0
 66166  1  0  0  0  0
 66167  1  0  0  0  0
 67 68  1  0  0  0  0
 67168  1  0  0  0  0
 67169  1  0  0  0  0
 68 69  1  0  0  0  0
 68170  1  0  0  0  0
 68171  1  0  0  0  0
 69 70  1  0  0  0  0
 69172  1  0  0  0  0
 69173  1  0  0  0  0
 70 71  1  0  0  0  0
 70174  1  0  0  0  0
 70175  1  0  0  0  0
 71 72  1  0  0  0  0
 71176  1  0  0  0  0
 71177  1  0  0  0  0
 72 73  1  0  0  0  0
 72178  1  0  0  0  0
 72179  1  0  0  0  0
 73 74  1  0  0  0  0
 73180  1  0  0  0  0
 73181  1  0  0  0  0
 74 75  1  0  0  0  0
 74182  1  0  0  0  0
 74183  1  0  0  0  0
 75 76  1  0  0  0  0
 75184  1  0  0  0  0
 75185  1  0  0  0  0
 76 77  1  0  0  0  0
 76186  1  0  0  0  0
 76187  1  0  0  0  0
 77 78  1  0  0  0  0
 77188  1  0  0  0  0
 77189  1  0  0  0  0
 78 79  1  0  0  0  0
 78190  1  0  0  0  0
 78191  1  0  0  0  0
 79 80  1  0  0  0  0
 79192  1  0  0  0  0
 79193  1  0  0  0  0
 80 81  1  0  0  0  0
 80194  1  0  0  0  0
 80195  1  0  0  0  0
 81196  1  0  0  0  0
 81197  1  0  0  0  0
 81198  1  0  0  0  0
M  END
$$$$
