
 OpenBabel04232216513D

 64 65  0  0  1  0  0  0  0  0999 V2000
    4.2091    0.0867   -1.7787 C   0  0  0  0  0  0  0  0  0  0  0  0
    4.3783    0.6697   -0.3640 C   0  0  0  0  0  0  0  0  0  0  0  0
    5.8047    0.5713    0.3523 C   0  0  0  0  0  0  0  0  0  0  0  0
    6.7804    1.7840    0.7547 C   0  0  0  0  0  0  0  0  0  0  0  0
    5.9723    3.1638    0.5776 C   0  0  3  0  0  0  0  0  0  0  0  0
    5.2956    3.7569    1.8499 C   0  0  0  0  0  0  0  0  0  0  0  0
    4.5382    5.0773    1.5427 C   0  0  0  0  0  0  0  0  0  0  0  0
    3.8575    5.6821    2.7713 C   0  0  0  0  0  0  0  0  0  0  0  0
    7.0727    3.9311   -0.0624 C   0  0  0  0  0  0  0  0  0  0  0  0
    7.4754    5.1495   -0.8559 C   0  0  0  0  0  0  0  0  0  0  0  0
    8.9983    4.7944   -1.0611 C   0  0  0  0  0  0  0  0  0  0  0  0
    9.5689    3.6902   -2.0998 C   0  0  0  0  0  0  0  0  0  0  0  0
    9.5869    3.8981   -3.3081 O   0  0  0  0  0  0  0  0  0  0  0  0
   10.3702    2.5405   -1.4894 C   0  0  0  0  0  0  0  0  0  0  0  0
   10.8146    2.9989   -0.3464 C   0  0  0  0  0  0  0  0  0  0  0  0
   10.5264    2.6186    1.0506 C   0  0  0  0  0  0  0  0  0  0  0  0
   11.8226    3.2342    1.8662 C   0  0  0  0  0  0  0  0  0  0  0  0
   13.2486    3.3342    1.0233 C   0  0  0  0  0  0  0  0  0  0  0  0
   14.3640    2.2164    1.0842 C   0  0  0  0  0  0  0  0  0  0  0  0
   13.6348    1.0889    0.4039 C   0  0  0  0  0  0  0  0  0  0  0  0
   13.7762   -0.3505    0.0373 C   0  0  0  0  0  0  0  0  0  0  0  0
   12.3095   -0.7070   -0.4807 C   0  0  0  0  0  0  0  0  0  0  0  0
   11.7591    0.1554   -1.6740 C   0  0  0  0  0  0  0  0  0  0  0  0
   10.4334    1.0289   -1.6251 C   0  0  0  0  0  0  0  0  0  0  0  0
    9.3206    0.4767   -1.6620 O   0  0  0  0  0  0  0  0  0  0  0  0
    9.3357    2.2722    1.5636 N   0  0  0  0  0  0  0  0  0  0  0  0
    8.1804    1.5671    0.9697 C   0  0  0  0  0  0  0  0  0  0  0  0
    3.1358    0.0054   -2.0192 H   0  0  0  0  0  0  0  0  0  0  0  0
    4.6148   -0.9257   -1.8647 H   0  0  0  0  0  0  0  0  0  0  0  0
    4.6483    0.7216   -2.5532 H   0  0  0  0  0  0  0  0  0  0  0  0
    3.6828    0.0743    0.2480 H   0  0  0  0  0  0  0  0  0  0  0  0
    3.9315    1.6663   -0.3624 H   0  0  0  0  0  0  0  0  0  0  0  0
    6.3844   -0.2011   -0.1625 H   0  0  0  0  0  0  0  0  0  0  0  0
    5.5389    0.1574    1.3351 H   0  0  0  0  0  0  0  0  0  0  0  0
    5.1983    3.0780   -0.1883 H   0  0  0  0  0  0  0  0  0  0  0  0
    6.0282    3.9400    2.6396 H   0  0  0  0  0  0  0  0  0  0  0  0
    4.5666    3.0378    2.2410 H   0  0  0  0  0  0  0  0  0  0  0  0
    3.7674    4.8978    0.7815 H   0  0  0  0  0  0  0  0  0  0  0  0
    5.2308    5.8222    1.1345 H   0  0  0  0  0  0  0  0  0  0  0  0
    3.0933    5.0136    3.1857 H   0  0  0  0  0  0  0  0  0  0  0  0
    3.3421    6.6198    2.4911 H   0  0  0  0  0  0  0  0  0  0  0  0
    4.5737    5.9254    3.5526 H   0  0  0  0  0  0  0  0  0  0  0  0
    7.3606    3.2049   -0.8269 H   0  0  0  0  0  0  0  0  0  0  0  0
    7.6907    4.0550    0.8234 H   0  0  0  0  0  0  0  0  0  0  0  0
    7.4095    6.0514   -0.2183 H   0  0  0  0  0  0  0  0  0  0  0  0
    6.9489    5.3219   -1.7898 H   0  0  0  0  0  0  0  0  0  0  0  0
    9.1888    4.3010   -0.1135 H   0  0  0  0  0  0  0  0  0  0  0  0
    9.6653    5.6512   -0.9363 H   0  0  0  0  0  0  0  0  0  0  0  0
   11.1527    4.0476   -0.3443 H   0  0  0  0  0  0  0  0  0  0  0  0
   11.9586    2.8186    2.8637 H   0  0  0  0  0  0  0  0  0  0  0  0
   11.5632    4.3019    2.0062 H   0  0  0  0  0  0  0  0  0  0  0  0
   13.6744    4.3430    1.0386 H   0  0  0  0  0  0  0  0  0  0  0  0
   12.9912    3.2788   -0.0396 H   0  0  0  0  0  0  0  0  0  0  0  0
   14.7472    2.0297    2.0882 H   0  0  0  0  0  0  0  0  0  0  0  0
   15.2162    2.5410    0.4604 H   0  0  0  0  0  0  0  0  0  0  0  0
   13.5239    1.5005   -0.5966 H   0  0  0  0  0  0  0  0  0  0  0  0
   12.7179    1.0575    0.9817 H   0  0  0  0  0  0  0  0  0  0  0  0
   14.0469   -0.9908    0.9106 H   0  0  0  0  0  0  0  0  0  0  0  0
   14.5333   -0.5558   -0.7383 H   0  0  0  0  0  0  0  0  0  0  0  0
   12.3016   -1.7694   -0.7488 H   0  0  0  0  0  0  0  0  0  0  0  0
   11.6237   -0.6000    0.3678 H   0  0  0  0  0  0  0  0  0  0  0  0
   12.5486    0.7707   -2.1471 H   0  0  0  0  0  0  0  0  0  0  0  0
   11.5335   -0.5625   -2.4788 H   0  0  0  0  0  0  0  0  0  0  0  0
    8.4518    0.5199    0.8440 H   0  0  0  0  0  0  0  0  0  0  0  0
  1  2  1  0  0  0  0
  1 28  1  0  0  0  0
  1 29  1  0  0  0  0
  1 30  1  0  0  0  0
  2  3  1  0  0  0  0
  2 31  1  0  0  0  0
  2 32  1  0  0  0  0
  3  4  1  0  0  0  0
  3 33  1  0  0  0  0
  3 34  1  0  0  0  0
  4  5  1  0  0  0  0
  4 27  2  3  0  0  0
  5  6  1  0  0  0  0
  5  9  1  0  0  0  0
  5 35  1  0  0  0  0
  6  7  1  0  0  0  0
  6 36  1  0  0  0  0
  6 37  1  0  0  0  0
  7  8  1  0  0  0  0
  7 38  1  0  0  0  0
  7 39  1  0  0  0  0
  8 40  1  0  0  0  0
  8 41  1  0  0  0  0
  8 42  1  0  0  0  0
  9 10  1  0  0  0  0
  9 43  1  0  0  0  0
  9 44  1  0  0  0  0
 10 11  1  0  0  0  0
 10 45  1  0  0  0  0
 10 46  1  0  0  0  0
 11 12  1  0  0  0  0
 11 47  1  0  0  0  0
 11 48  1  0  0  0  0
 12 13  2  0  0  0  0
 12 14  1  0  0  0  0
 14 15  2  3  0  0  0
 14 24  1  0  0  0  0
 15 16  1  0  0  0  0
 15 49  1  0  0  0  0
 16 17  1  0  0  0  0
 16 26  2  3  0  0  0
 17 18  1  0  0  0  0
 17 50  1  0  0  0  0
 17 51  1  0  0  0  0
 18 19  1  0  0  0  0
 18 52  1  0  0  0  0
 18 53  1  0  0  0  0
 19 20  1  0  0  0  0
 19 54  1  0  0  0  0
 19 55  1  0  0  0  0
 20 21  1  0  0  0  0
 20 56  1  0  0  0  0
 20 57  1  0  0  0  0
 21 22  1  0  0  0  0
 21 58  1  0  0  0  0
 21 59  1  0  0  0  0
 22 23  1  0  0  0  0
 22 60  1  0  0  0  0
 22 61  1  0  0  0  0
 23 24  1  0  0  0  0
 23 62  1  0  0  0  0
 23 63  1  0  0  0  0
 24 25  2  0  0  0  0
 26 27  1  0  0  0  0
 27 64  1  0  0  0  0
M  END
$$$$
