
 OpenBabel04232216543D

150149  0  0  0  0  0  0  0  0999 V2000
   14.0506   26.1627    4.4761 C   0  0  0  0  0  0  0  0  0  0  0  0
   15.5170   25.8553    4.7148 C   0  0  0  0  0  0  0  0  0  0  0  0
   15.8786   24.4768    4.1801 C   0  0  0  0  0  0  0  0  0  0  0  0
   17.3497   24.1715    4.4300 C   0  0  0  0  0  0  0  0  0  0  0  0
   17.6799   22.7899    3.9007 C   0  0  0  0  0  0  0  0  0  0  0  0
   19.0799   22.5107    4.1563 N   0  0  0  0  0  0  0  0  0  0  0  0
   19.2771   21.1915    3.7266 N   0  0  0  0  0  0  0  0  0  0  0  0
   20.6143   20.8274    3.9735 N   0  0  0  0  0  0  0  0  0  0  0  0
   20.9635   19.6153    3.3552 N   0  0  0  0  0  0  0  0  0  0  0  0
   20.8167   19.6234    1.9413 N   0  0  0  0  0  0  0  0  0  0  0  0
   21.6175   20.6007    1.2380 N   0  0  0  0  0  0  0  0  0  0  0  0
   23.0139   20.3360    1.3245 N   0  0  0  0  0  0  0  0  0  0  0  0
   23.2739   19.0473    0.8122 N   0  0  0  0  0  0  0  0  0  0  0  0
   22.9702   19.0581   -0.5932 N   0  0  0  0  0  0  0  0  0  0  0  0
   23.7336   20.0456   -1.2843 N   0  0  0  0  0  0  0  0  0  0  0  0
   25.1346   19.8234   -1.1060 N   0  0  0  0  0  0  0  0  0  0  0  0
   25.4194   18.5224   -1.6785 N   0  0  0  0  0  0  0  0  0  0  0  0
   24.9378   18.5215   -3.0385 N   0  0  0  0  0  0  0  0  0  0  0  0
   25.6301   19.5644   -3.7577 N   0  0  0  0  0  0  0  0  0  0  0  0
   27.0783   19.3856   -3.7683 N   0  0  0  0  0  0  0  0  0  0  0  0
   27.4363   18.1156   -4.2748 N   0  0  0  0  0  0  0  0  0  0  0  0
   27.1653   18.0954   -5.6761 N   0  0  0  0  0  0  0  0  0  0  0  0
   27.8118   19.2016   -6.3227 N   0  0  0  0  0  0  0  0  0  0  0  0
   29.2452   19.0276   -6.3019 N   0  0  0  0  0  0  0  0  0  0  0  0
   29.5429   17.7151   -6.7894 N   0  0  0  0  0  0  0  0  0  0  0  0
   29.0917   17.6671   -8.1502 N   0  0  0  0  0  0  0  0  0  0  0  0
   29.7083   18.7376   -8.9175 N   0  0  0  0  0  0  0  0  0  0  0  0
   31.1555   18.7030   -8.8962 N   0  0  0  0  0  0  0  0  0  0  0  0
   31.6273   17.5038   -9.5332 N   0  0  0  0  0  0  0  0  0  0  0  0
   31.1777   17.4111  -10.8914 N   0  0  0  0  0  0  0  0  0  0  0  0
   31.7675   18.4436  -11.6996 N   0  0  0  0  0  0  0  0  0  0  0  0
   33.1782   18.4065  -11.5566 N   0  0  0  0  0  0  0  0  0  0  0  0
   33.6205   17.1436  -12.0684 N   0  0  0  0  0  0  0  0  0  0  0  0
   33.1923   16.9715  -13.4371 N   0  0  0  0  0  0  0  0  0  0  0  0
   33.6089   18.0651  -14.2436 N   0  0  0  0  0  0  0  0  0  0  0  0
   35.0355   18.0825  -14.3141 N   0  0  0  0  0  0  0  0  0  0  0  0
   35.5067   16.7903  -14.7457 N   0  0  0  0  0  0  0  0  0  0  0  0
   34.9863   16.4966  -16.0317 N   0  0  0  0  0  0  0  0  0  0  0  0
   35.4578   17.5046  -16.9483 N   0  0  0  0  0  0  0  0  0  0  0  0
   36.8834   17.6475  -16.8801 N   0  0  0  0  0  0  0  0  0  0  0  0
   37.5413   16.4775  -17.3468 N   0  0  0  0  0  0  0  0  0  0  0  0
   37.2316   16.2169  -18.7306 N   0  0  0  0  0  0  0  0  0  0  0  0
   37.4929   17.3754  -19.5661 N   0  0  0  0  0  0  0  0  0  0  0  0
   39.1011   17.7436  -19.7452 S   0  0  0  0  0  0  0  0  0  0  0  0
   39.7669   16.3152  -20.2216 N   0  0  0  0  0  0  0  0  0  0  0  0
   39.1673   15.9523  -21.7179 S   0  0  0  0  0  0  0  0  0  0  0  0
   39.7078   14.4778  -22.0961 N   0  0  0  0  0  0  0  0  0  0  0  0
   39.3448   13.2614  -21.0713 S   0  0  0  0  0  0  0  0  0  0  0  0
   37.7882   12.7668  -21.1478 N   0  0  0  0  0  0  0  0  0  0  0  0
   37.1655   12.1510  -22.5313 S   0  0  0  0  0  0  0  0  0  0  0  0
   37.9222   10.7623  -22.9877 N   0  0  0  0  0  0  0  0  0  0  0  0
   37.7677    9.4318  -22.0409 S   0  0  0  0  0  0  0  0  0  0  0  0
   36.1639    9.1096  -21.8305 N   0  0  0  0  0  0  0  0  0  0  0  0
   35.8910    7.8026  -20.8410 S   0  0  0  0  0  0  0  0  0  0  0  0
   36.6071    8.0460  -19.3541 N   0  0  0  0  0  0  0  0  0  0  0  0
   36.0580    9.4265  -18.6138 S   0  0  0  0  0  0  0  0  0  0  0  0
   36.8288    9.6462  -17.1665 N   0  0  0  0  0  0  0  0  0  0  0  0
   38.4739    9.7750  -17.2015 S   0  0  0  0  0  0  0  0  0  0  0  0
   38.8182   11.1274  -18.0555 N   0  0  0  0  0  0  0  0  0  0  0  0
   40.4086   11.5358  -18.1835 S   0  0  0  0  0  0  0  0  0  0  0  0
   41.3187   10.3079  -18.7912 N   0  0  0  0  0  0  0  0  0  0  0  0
   41.1637    9.8133  -20.3506 S   0  0  0  0  0  0  0  0  0  0  0  0
   41.3700   11.0769  -21.3539 N   0  0  0  0  0  0  0  0  0  0  0  0
   42.8806   11.5283  -21.7878 S   0  0  0  0  0  0  0  0  0  0  0  0
   42.6914   13.0244  -22.5269 N   0  0  0  0  0  0  0  0  0  0  0  0
   42.4675   12.9468  -24.1753 S   0  0  0  0  0  0  0  0  0  0  0  0
   40.9924   12.2969  -24.5010 N   0  0  0  0  0  0  0  0  0  0  0  0
   39.7150   13.3033  -24.7431 S   0  0  0  0  0  0  0  0  0  0  0  0
   40.0481   14.8647  -25.0630 N   0  0  0  0  0  0  0  0  0  0  0  0
   39.5674   15.1328  -26.5992 S   0  0  0  0  0  0  0  0  0  0  0  0
   39.8679   16.6704  -27.0560 N   0  0  0  0  0  0  0  0  0  0  0  0
   38.8069   17.7637  -26.4148 S   0  0  0  0  0  0  0  0  0  0  0  0
   39.2797   18.0644  -24.8598 N   0  0  0  0  0  0  0  0  0  0  0  0
   40.8441   18.5698  -24.6880 S   0  0  0  0  0  0  0  0  0  0  0  0
   41.0497   19.9816  -25.5312 N   0  0  0  0  0  0  0  0  0  0  0  0
   42.5701   20.5802  -25.2213 S   0  0  0  0  0  0  0  0  0  0  0  0
   42.8031   21.9162  -26.1734 N   0  0  0  0  0  0  0  0  0  0  0  0
   41.8412   23.1763  -25.6929 S   0  0  0  0  0  0  0  0  0  0  0  0
   42.2033   24.4418  -26.6814 N   0  0  0  0  0  0  0  0  0  0  0  0
   41.8266   24.1474  -28.2540 S   0  0  0  0  0  0  0  0  0  0  0  0
   42.2162   25.5487  -29.0291 N   0  0  0  0  0  0  0  0  0  0  0  0
   13.8050   27.1538    4.8677 H   0  0  0  0  0  0  0  0  0  0  0  0
   13.4114   25.4281    4.9763 H   0  0  0  0  0  0  0  0  0  0  0  0
   13.8178   26.1488    3.4065 H   0  0  0  0  0  0  0  0  0  0  0  0
   15.7300   25.9034    5.7889 H   0  0  0  0  0  0  0  0  0  0  0  0
   16.1348   26.6169    4.2251 H   0  0  0  0  0  0  0  0  0  0  0  0
   15.6690   24.4255    3.1043 H   0  0  0  0  0  0  0  0  0  0  0  0
   15.2582   23.7129    4.6652 H   0  0  0  0  0  0  0  0  0  0  0  0
   17.5669   24.2194    5.5041 H   0  0  0  0  0  0  0  0  0  0  0  0
   17.9787   24.9213    3.9335 H   0  0  0  0  0  0  0  0  0  0  0  0
   17.4780   22.7585    2.8205 H   0  0  0  0  0  0  0  0  0  0  0  0
   17.0406   22.0385    4.3826 H   0  0  0  0  0  0  0  0  0  0  0  0
   19.2977   22.5486    5.1468 H   0  0  0  0  0  0  0  0  0  0  0  0
   19.0321   21.1729    2.7349 H   0  0  0  0  0  0  0  0  0  0  0  0
   20.7911   20.7876    4.9844 H   0  0  0  0  0  0  0  0  0  0  0  0
   20.5186   18.7915    3.7442 H   0  0  0  0  0  0  0  0  0  0  0  0
   19.8477   19.5372    1.6114 H   0  0  0  0  0  0  0  0  0  0  0  0
   21.4465   21.5499    1.5777 H   0  0  0  0  0  0  0  0  0  0  0  0
   23.3596   20.3720    2.2714 H   0  0  0  0  0  0  0  0  0  0  0  0
   22.6679   18.3980    1.3327 H   0  0  0  0  0  0  0  0  0  0  0  0
   21.9847   19.2981   -0.7110 H   0  0  0  0  0  0  0  0  0  0  0  0
   23.4679   21.0034   -1.0784 H   0  0  0  0  0  0  0  0  0  0  0  0
   25.3663   19.8524   -0.1055 H   0  0  0  0  0  0  0  0  0  0  0  0
   24.7943   17.8657   -1.2260 H   0  0  0  0  0  0  0  0  0  0  0  0
   23.9249   18.7397   -2.9854 H   0  0  0  0  0  0  0  0  0  0  0  0
   25.4192   20.4603   -3.2989 H   0  0  0  0  0  0  0  0  0  0  0  0
   27.4785   19.4652   -2.8442 H   0  0  0  0  0  0  0  0  0  0  0  0
   26.9435   17.3824   -3.7531 H   0  0  0  0  0  0  0  0  0  0  0  0
   26.1671   18.2086   -5.8448 H   0  0  0  0  0  0  0  0  0  0  0  0
   27.4990   20.0944   -5.9128 H   0  0  0  0  0  0  0  0  0  0  0  0
   29.5925   19.0685   -5.3528 H   0  0  0  0  0  0  0  0  0  0  0  0
   28.9823   17.0594   -6.2337 H   0  0  0  0  0  0  0  0  0  0  0  0
   28.0875   17.8761   -8.1496 H   0  0  0  0  0  0  0  0  0  0  0  0
   29.3747   19.6371   -8.5926 H   0  0  0  0  0  0  0  0  0  0  0  0
   31.5283   18.7098   -7.9515 H   0  0  0  0  0  0  0  0  0  0  0  0
   31.2714   16.7008   -9.0066 H   0  0  0  0  0  0  0  0  0  0  0  0
   30.1673   17.5386  -10.9168 H   0  0  0  0  0  0  0  0  0  0  0  0
   31.4092   19.3324  -11.3466 H   0  0  0  0  0  0  0  0  0  0  0  0
   33.3862   18.3764  -10.5675 H   0  0  0  0  0  0  0  0  0  0  0  0
   33.1262   16.4454  -11.4975 H   0  0  0  0  0  0  0  0  0  0  0  0
   32.1724   17.0024  -13.4426 H   0  0  0  0  0  0  0  0  0  0  0  0
   33.2276   18.9161  -13.8226 H   0  0  0  0  0  0  0  0  0  0  0  0
   35.3661   18.1414  -13.3553 H   0  0  0  0  0  0  0  0  0  0  0  0
   35.0297   16.1640  -14.0923 H   0  0  0  0  0  0  0  0  0  0  0  0
   33.9762   16.5833  -15.9218 H   0  0  0  0  0  0  0  0  0  0  0  0
   35.1493   18.3842  -16.5401 H   0  0  0  0  0  0  0  0  0  0  0  0
   37.0849   17.8075  -15.8768 H   0  0  0  0  0  0  0  0  0  0  0  0
   37.2172   15.7220  -16.7441 H   0  0  0  0  0  0  0  0  0  0  0  0
   36.2218   16.0421  -18.7922 H   0  0  0  0  0  0  0  0  0  0  0  0
   37.0173   18.1611  -19.1338 H   0  0  0  0  0  0  0  0  0  0  0  0
   39.4038   15.6390  -19.5497 H   0  0  0  0  0  0  0  0  0  0  0  0
   40.6800   14.5241  -22.4099 H   0  0  0  0  0  0  0  0  0  0  0  0
   37.2090   13.5471  -20.8191 H   0  0  0  0  0  0  0  0  0  0  0  0
   38.8916   10.9531  -23.2260 H   0  0  0  0  0  0  0  0  0  0  0  0
   35.6935    8.9935  -22.7316 H   0  0  0  0  0  0  0  0  0  0  0  0
   37.6123    8.1287  -19.5115 H   0  0  0  0  0  0  0  0  0  0  0  0
   36.5274    8.9710  -16.4708 H   0  0  0  0  0  0  0  0  0  0  0  0
   38.2607   11.9402  -17.7786 H   0  0  0  0  0  0  0  0  0  0  0  0
   41.1940    9.5035  -18.1889 H   0  0  0  0  0  0  0  0  0  0  0  0
   40.8185   11.8594  -20.9871 H   0  0  0  0  0  0  0  0  0  0  0  0
   43.5712   13.5307  -22.3709 H   0  0  0  0  0  0  0  0  0  0  0  0
   40.6978   11.6935  -23.7302 H   0  0  0  0  0  0  0  0  0  0  0  0
   40.7029   15.4493  -24.5382 H   0  0  0  0  0  0  0  0  0  0  0  0
   39.7426   16.6960  -28.0600 H   0  0  0  0  0  0  0  0  0  0  0  0
   39.1024   17.2469  -24.2695 H   0  0  0  0  0  0  0  0  0  0  0  0
   40.3406   20.6546  -25.2401 H   0  0  0  0  0  0  0  0  0  0  0  0
   42.5843   21.6826  -27.1371 H   0  0  0  0  0  0  0  0  0  0  0  0
   43.1660   24.7428  -26.5532 H   0  0  0  0  0  0  0  0  0  0  0  0
   42.1625   25.3969  -30.0308 H   0  0  0  0  0  0  0  0  0  0  0  0
   43.1872   25.7661  -28.8177 H   0  0  0  0  0  0  0  0  0  0  0  0
  1  2  1  0  0  0  0
  1 82  1  0  0  0  0
  1 83  1  0  0  0  0
  1 84  1  0  0  0  0
  2  3  1  0  0  0  0
  2 85  1  0  0  0  0
  2 86  1  0  0  0  0
  3  4  1  0  0  0  0
  3 87  1  0  0  0  0
  3 88  1  0  0  0  0
  4  5  1  0  0  0  0
  4 89  1  0  0  0  0
  4 90  1  0  0  0  0
  5  6  1  0  0  0  0
  5 91  1  0  0  0  0
  5 92  1  0  0  0  0
  6  7  1  0  0  0  0
  6 93  1  0  0  0  0
  7  8  1  0  0  0  0
  7 94  1  0  0  0  0
  8  9  1  0  0  0  0
  8 95  1  0  0  0  0
  9 10  1  0  0  0  0
  9 96  1  0  0  0  0
 10 11  1  0  0  0  0
 10 97  1  0  0  0  0
 11 12  1  0  0  0  0
 11 98  1  0  0  0  0
 12 13  1  0  0  0  0
 12 99  1  0  0  0  0
 13 14  1  0  0  0  0
 13100  1  0  0  0  0
 14 15  1  0  0  0  0
 14101  1  0  0  0  0
 15 16  1  0  0  0  0
 15102  1  0  0  0  0
 16 17  1  0  0  0  0
 16103  1  0  0  0  0
 17 18  1  0  0  0  0
 17104  1  0  0  0  0
 18 19  1  0  0  0  0
 18105  1  0  0  0  0
 19 20  1  0  0  0  0
 19106  1  0  0  0  0
 20 21  1  0  0  0  0
 20107  1  0  0  0  0
 21 22  1  0  0  0  0
 21108  1  0  0  0  0
 22 23  1  0  0  0  0
 22109  1  0  0  0  0
 23 24  1  0  0  0  0
 23110  1  0  0  0  0
 24 25  1  0  0  0  0
 24111  1  0  0  0  0
 25 26  1  0  0  0  0
 25112  1  0  0  0  0
 26 27  1  0  0  0  0
 26113  1  0  0  0  0
 27 28  1  0  0  0  0
 27114  1  0  0  0  0
 28 29  1  0  0  0  0
 28115  1  0  0  0  0
 29 30  1  0  0  0  0
 29116  1  0  0  0  0
 30 31  1  0  0  0  0
 30117  1  0  0  0  0
 31 32  1  0  0  0  0
 31118  1  0  0  0  0
 32 33  1  0  0  0  0
 32119  1  0  0  0  0
 33 34  1  0  0  0  0
 33120  1  0  0  0  0
 34 35  1  0  0  0  0
 34121  1  0  0  0  0
 35 36  1  0  0  0  0
 35122  1  0  0  0  0
 36 37  1  0  0  0  0
 36123  1  0  0  0  0
 37 38  1  0  0  0  0
 37124  1  0  0  0  0
 38 39  1  0  0  0  0
 38125  1  0  0  0  0
 39 40  1  0  0  0  0
 39126  1  0  0  0  0
 40 41  1  0  0  0  0
 40127  1  0  0  0  0
 41 42  1  0  0  0  0
 41128  1  0  0  0  0
 42 43  1  0  0  0  0
 42129  1  0  0  0  0
 43 44  1  0  0  0  0
 43130  1  0  0  0  0
 44 45  1  0  0  0  0
 45 46  1  0  0  0  0
 45131  1  0  0  0  0
 46 47  1  0  0  0  0
 47 48  1  0  0  0  0
 47132  1  0  0  0  0
 48 49  1  0  0  0  0
 49 50  1  0  0  0  0
 49133  1  0  0  0  0
 50 51  1  0  0  0  0
 51 52  1  0  0  0  0
 51134  1  0  0  0  0
 52 53  1  0  0  0  0
 53 54  1  0  0  0  0
 53135  1  0  0  0  0
 54 55  1  0  0  0  0
 55 56  1  0  0  0  0
 55136  1  0  0  0  0
 56 57  1  0  0  0  0
 57 58  1  0  0  0  0
 57137  1  0  0  0  0
 58 59  1  0  0  0  0
 59 60  1  0  0  0  0
 59138  1  0  0  0  0
 60 61  1  0  0  0  0
 61 62  1  0  0  0  0
 61139  1  0  0  0  0
 62 63  1  0  0  0  0
 63 64  1  0  0  0  0
 63140  1  0  0  0  0
 64 65  1  0  0  0  0
 65 66  1  0  0  0  0
 65141  1  0  0  0  0
 66 67  1  0  0  0  0
 67 68  1  0  0  0  0
 67142  1  0  0  0  0
 68 69  1  0  0  0  0
 69 70  1  0  0  0  0
 69143  1  0  0  0  0
 70 71  1  0  0  0  0
 71 72  1  0  0  0  0
 71144  1  0  0  0  0
 72 73  1  0  0  0  0
 73 74  1  0  0  0  0
 73145  1  0  0  0  0
 74 75  1  0  0  0  0
 75 76  1  0  0  0  0
 75146  1  0  0  0  0
 76 77  1  0  0  0  0
 77 78  1  0  0  0  0
 77147  1  0  0  0  0
 78 79  1  0  0  0  0
 79 80  1  0  0  0  0
 79148  1  0  0  0  0
 80 81  1  0  0  0  0
 81149  1  0  0  0  0
 81150  1  0  0  0  0
M  END
$$$$
