
 OpenBabel04232216573D

155154  0  0  0  0  0  0  0  0999 V2000
   27.5977  -19.8264   41.8201 C   0  0  0  0  0  0  0  0  0  0  0  0
   26.8657  -18.1854   42.0572 S   0  0  0  0  0  0  0  0  0  0  0  0
   27.4811  -17.3277   40.5677 C   0  0  0  0  0  0  0  0  0  0  0  0
   29.0015  -17.2726   40.5491 C   0  0  0  0  0  0  0  0  0  0  0  0
   29.4611  -16.5661   39.3635 N   0  0  0  0  0  0  0  0  0  0  0  0
   30.8831  -16.6432   39.3587 N   0  0  0  0  0  0  0  0  0  0  0  0
   31.3500  -15.9645   38.2188 N   0  0  0  0  0  0  0  0  0  0  0  0
   32.7676  -15.8676   38.2137 N   0  0  0  0  0  0  0  0  0  0  0  0
   33.2113  -15.1499   37.0804 N   0  0  0  0  0  0  0  0  0  0  0  0
   32.8121  -13.7815   37.1378 N   0  0  0  0  0  0  0  0  0  0  0  0
   33.2977  -13.0918   35.9872 N   0  0  0  0  0  0  0  0  0  0  0  0
   32.7972  -11.7603   35.9506 N   0  0  0  0  0  0  0  0  0  0  0  0
   33.2284  -11.0849   34.7853 N   0  0  0  0  0  0  0  0  0  0  0  0
   32.7729   -9.7436   34.8777 N   0  0  0  0  0  0  0  0  0  0  0  0
   33.2587   -8.9646   33.7844 N   0  0  0  0  0  0  0  0  0  0  0  0
   32.8022   -7.6096   33.8518 N   0  0  0  0  0  0  0  0  0  0  0  0
   33.2612   -6.9145   32.6823 N   0  0  0  0  0  0  0  0  0  0  0  0
   32.7707   -5.5689   32.6402 N   0  0  0  0  0  0  0  0  0  0  0  0
   33.2149   -4.8810   31.4645 N   0  0  0  0  0  0  0  0  0  0  0  0
   32.7618   -3.5325   31.5284 N   0  0  0  0  0  0  0  0  0  0  0  0
   33.2655   -2.7660   30.4391 N   0  0  0  0  0  0  0  0  0  0  0  0
   32.7717   -1.4467   30.4980 N   0  0  0  0  0  0  0  0  0  0  0  0
   33.2443   -0.7017   29.3722 N   0  0  0  0  0  0  0  0  0  0  0  0
   32.7635    0.6242   29.4212 N   0  0  0  0  0  0  0  0  0  0  0  0
   33.2416    1.3156   30.5780 N   0  0  0  0  0  0  0  0  0  0  0  0
   32.8090    2.9130   30.4385 S   0  0  0  0  0  0  0  0  0  0  0  0
   33.6035    3.6613   32.1760 S   0  0  0  0  0  0  0  0  0  0  0  0
   35.6501    3.5528   31.9855 S   0  0  0  0  0  0  0  0  0  0  0  0
   36.2403    4.9228   30.5631 S   0  0  0  0  0  0  0  0  0  0  0  0
   38.3037    4.7577   30.4748 S   0  0  0  0  0  0  0  0  0  0  0  0
   38.9174    5.7808   28.7842 S   0  0  0  0  0  0  0  0  0  0  0  0
   40.9857    5.7198   28.7772 S   0  0  0  0  0  0  0  0  0  0  0  0
   41.6093    6.6305   27.0236 S   0  0  0  0  0  0  0  0  0  0  0  0
   43.6351    6.9251   27.2609 S   0  0  0  0  0  0  0  0  0  0  0  0
   44.3768    7.7552   25.5291 S   0  0  0  0  0  0  0  0  0  0  0  0
   43.6495    9.6689   25.4369 S   0  0  0  0  0  0  0  0  0  0  0  0
   44.4155   10.3429   26.7339 N   0  0  0  0  0  0  0  0  0  0  0  0
   43.8635   11.6291   26.9668 N   0  0  0  0  0  0  0  0  0  0  0  0
   44.4316   12.2636   28.1171 N   0  0  0  0  0  0  0  0  0  0  0  0
   45.8639   12.3249   28.0726 N   0  0  0  0  0  0  0  0  0  0  0  0
   46.3234   13.0760   26.9398 N   0  0  0  0  0  0  0  0  0  0  0  0
   45.9256   14.4559   27.0031 N   0  0  0  0  0  0  0  0  0  0  0  0
   46.3523   15.0446   28.2208 N   0  0  0  0  0  0  0  0  0  0  0  0
   47.8071   15.1593   28.2272 N   0  0  0  0  0  0  0  0  0  0  0  0
   48.2930   15.8111   27.0320 N   0  0  0  0  0  0  0  0  0  0  0  0
   47.9165   17.1880   27.0527 N   0  0  0  0  0  0  0  0  0  0  0  0
   48.3225   17.7973   28.2992 N   0  0  0  0  0  0  0  0  0  0  0  0
   49.7540   17.8344   28.3549 N   0  0  0  0  0  0  0  0  0  0  0  0
   50.2668   18.5297   27.1819 N   0  0  0  0  0  0  0  0  0  0  0  0
   49.8280   19.8941   27.1403 N   0  0  0  0  0  0  0  0  0  0  0  0
   50.2628   20.5928   28.3073 N   0  0  0  0  0  0  0  0  0  0  0  0
   51.6897   20.5911   28.4093 N   0  0  0  0  0  0  0  0  0  0  0  0
   52.2162   21.1961   27.2439 N   0  0  0  0  0  0  0  0  0  0  0  0
   51.7232   22.5574   27.1962 N   0  0  0  0  0  0  0  0  0  0  0  0
   52.0762   23.2472   28.4069 N   0  0  0  0  0  0  0  0  0  0  0  0
   53.5058   23.3186   28.5401 N   0  0  0  0  0  0  0  0  0  0  0  0
   54.0710   23.8845   27.3564 N   0  0  0  0  0  0  0  0  0  0  0  0
   53.5596   25.2147   27.2375 N   0  0  0  0  0  0  0  0  0  0  0  0
   54.0357   26.0778   28.3503 N   0  0  0  0  0  0  0  0  0  0  0  0
   55.4452   26.0139   28.5045 N   0  0  0  0  0  0  0  0  0  0  0  0
   56.0645   26.6707   27.3968 N   0  0  0  0  0  0  0  0  0  0  0  0
   55.4696   27.9762   27.3035 N   0  0  0  0  0  0  0  0  0  0  0  0
   55.8087   28.6949   28.5019 N   0  0  0  0  0  0  0  0  0  0  0  0
   57.2101   28.6213   28.7196 N   0  0  0  0  0  0  0  0  0  0  0  0
   57.8602   29.2185   27.5819 N   0  0  0  0  0  0  0  0  0  0  0  0
   57.3478   30.5547   27.3666 N   0  0  0  0  0  0  0  0  0  0  0  0
   57.6380   31.3407   28.5153 N   0  0  0  0  0  0  0  0  0  0  0  0
   59.0412   31.3102   28.7759 N   0  0  0  0  0  0  0  0  0  0  0  0
   59.7427   31.9554   27.6930 N   0  0  0  0  0  0  0  0  0  0  0  0
   59.2564   33.2827   27.4671 N   0  0  0  0  0  0  0  0  0  0  0  0
   59.5874   34.1294   28.5642 N   0  0  0  0  0  0  0  0  0  0  0  0
   60.9992   34.1799   28.7954 N   0  0  0  0  0  0  0  0  0  0  0  0
   61.6468   34.6846   27.6338 N   0  0  0  0  0  0  0  0  0  0  0  0
   61.0938   35.9871   27.3889 N   0  0  0  0  0  0  0  0  0  0  0  0
   61.4183   36.8232   28.5521 N   0  0  0  0  0  0  0  0  0  0  0  0
   62.8184   36.7592   28.8845 N   0  0  0  0  0  0  0  0  0  0  0  0
   63.6102   37.2924   27.8265 N   0  0  0  0  0  0  0  0  0  0  0  0
   63.1796   38.6414   27.5727 N   0  0  0  0  0  0  0  0  0  0  0  0
   63.3510   39.4640   28.7394 N   0  0  0  0  0  0  0  0  0  0  0  0
   64.7305   39.5315   29.1072 N   0  0  0  0  0  0  0  0  0  0  0  0
   65.4452   40.0831   27.9899 N   0  0  0  0  0  0  0  0  0  0  0  0
   27.2958  -20.4561   42.6626 H   0  0  0  0  0  0  0  0  0  0  0  0
   28.6893  -19.7983   41.8182 H   0  0  0  0  0  0  0  0  0  0  0  0
   27.2300  -20.2902   40.9013 H   0  0  0  0  0  0  0  0  0  0  0  0
   27.0712  -16.3118   40.5832 H   0  0  0  0  0  0  0  0  0  0  0  0
   27.0866  -17.8252   39.6741 H   0  0  0  0  0  0  0  0  0  0  0  0
   29.4037  -18.2906   40.5105 H   0  0  0  0  0  0  0  0  0  0  0  0
   29.3822  -16.7847   41.4550 H   0  0  0  0  0  0  0  0  0  0  0  0
   29.1899  -15.5825   39.3820 H   0  0  0  0  0  0  0  0  0  0  0  0
   31.1589  -17.6289   39.3625 H   0  0  0  0  0  0  0  0  0  0  0  0
   30.9576  -15.0169   38.2378 H   0  0  0  0  0  0  0  0  0  0  0  0
   33.1795  -16.7976   38.1659 H   0  0  0  0  0  0  0  0  0  0  0  0
   32.9094  -15.6192   36.2224 H   0  0  0  0  0  0  0  0  0  0  0  0
   33.2061  -13.3880   38.0046 H   0  0  0  0  0  0  0  0  0  0  0  0
   32.9917  -13.5912   35.1418 H   0  0  0  0  0  0  0  0  0  0  0  0
   33.1285  -11.2066   36.7411 H   0  0  0  0  0  0  0  0  0  0  0  0
   32.8526  -11.5673   33.9653 H   0  0  0  0  0  0  0  0  0  0  0  0
   33.0922   -9.3597   35.7786 H   0  0  0  0  0  0  0  0  0  0  0  0
   32.9226   -9.3168   32.8844 H   0  0  0  0  0  0  0  0  0  0  0  0
   33.1591   -7.1754   34.7020 H   0  0  0  0  0  0  0  0  0  0  0  0
   32.9384   -7.4542   31.8673 H   0  0  0  0  0  0  0  0  0  0  0  0
   33.1059   -5.0170   33.4345 H   0  0  0  0  0  0  0  0  0  0  0  0
   32.8463   -5.3450   30.6306 H   0  0  0  0  0  0  0  0  0  0  0  0
   33.0697   -3.1402   32.4253 H   0  0  0  0  0  0  0  0  0  0  0  0
   32.9425   -3.1502   29.5491 H   0  0  0  0  0  0  0  0  0  0  0  0
   33.0897   -0.9714   31.3493 H   0  0  0  0  0  0  0  0  0  0  0  0
   32.9181   -1.1208   28.4996 H   0  0  0  0  0  0  0  0  0  0  0  0
   31.7411    0.6177   29.3944 H   0  0  0  0  0  0  0  0  0  0  0  0
   34.2637    1.2625   30.5885 H   0  0  0  0  0  0  0  0  0  0  0  0
   45.4187   10.4821   26.5824 H   0  0  0  0  0  0  0  0  0  0  0  0
   42.8364   11.5822   26.9855 H   0  0  0  0  0  0  0  0  0  0  0  0
   44.1756   11.8002   28.9831 H   0  0  0  0  0  0  0  0  0  0  0  0
   46.2595   11.3777   28.0927 H   0  0  0  0  0  0  0  0  0  0  0  0
   45.9325   12.6763   26.0838 H   0  0  0  0  0  0  0  0  0  0  0  0
   44.9174   14.5522   26.9305 H   0  0  0  0  0  0  0  0  0  0  0  0
   45.9897   14.4802   28.9998 H   0  0  0  0  0  0  0  0  0  0  0  0
   48.2017   14.2237   28.1727 H   0  0  0  0  0  0  0  0  0  0  0  0
   47.9436   15.2984   26.2030 H   0  0  0  0  0  0  0  0  0  0  0  0
   46.9056   17.2646   27.0176 H   0  0  0  0  0  0  0  0  0  0  0  0
   47.9366   17.2099   29.0559 H   0  0  0  0  0  0  0  0  0  0  0  0
   50.1160   16.8861   28.3012 H   0  0  0  0  0  0  0  0  0  0  0  0
   49.8956   18.0020   26.3706 H   0  0  0  0  0  0  0  0  0  0  0  0
   48.8152   19.9712   27.0906 H   0  0  0  0  0  0  0  0  0  0  0  0
   49.8847   20.1332   29.1268 H   0  0  0  0  0  0  0  0  0  0  0  0
   52.0139   19.6355   28.4283 H   0  0  0  0  0  0  0  0  0  0  0  0
   51.8102   20.7159   26.4529 H   0  0  0  0  0  0  0  0  0  0  0  0
   50.6931   22.4304   27.1656 H   0  0  0  0  0  0  0  0  0  0  0  0
   51.7182   22.7459   29.2163 H   0  0  0  0  0  0  0  0  0  0  0  0
   53.8567   22.3672   28.6127 H   0  0  0  0  0  0  0  0  0  0  0  0
   53.7359   23.2846   26.5812 H   0  0  0  0  0  0  0  0  0  0  0  0
   52.5518   25.1826   27.3427 H   0  0  0  0  0  0  0  0  0  0  0  0
   53.6409   25.6878   29.2055 H   0  0  0  0  0  0  0  0  0  0  0  0
   55.7216   25.0305   28.6451 H   0  0  0  0  0  0  0  0  0  0  0  0
   55.7937   26.1971   26.5504 H   0  0  0  0  0  0  0  0  0  0  0  0
   54.4693   27.8239   27.3641 H   0  0  0  0  0  0  0  0  0  0  0  0
   55.3681   28.1715   29.2567 H   0  0  0  0  0  0  0  0  0  0  0  0
   57.4653   27.6306   28.8172 H   0  0  0  0  0  0  0  0  0  0  0  0
   57.5467   28.6992   26.7690 H   0  0  0  0  0  0  0  0  0  0  0  0
   56.3360   30.4750   27.3264 H   0  0  0  0  0  0  0  0  0  0  0  0
   57.1824   30.8604   29.2869 H   0  0  0  0  0  0  0  0  0  0  0  0
   59.2885   30.3094   28.8139 H   0  0  0  0  0  0  0  0  0  0  0  0
   59.4981   31.4511   26.8456 H   0  0  0  0  0  0  0  0  0  0  0  0
   58.2448   33.2346   27.4022 H   0  0  0  0  0  0  0  0  0  0  0  0
   59.1602   33.7150   29.3818 H   0  0  0  0  0  0  0  0  0  0  0  0
   61.3036   33.2193   28.9103 H   0  0  0  0  0  0  0  0  0  0  0  0
   61.3554   34.0288   26.8930 H   0  0  0  0  0  0  0  0  0  0  0  0
   60.0704   35.8273   27.3917 H   0  0  0  0  0  0  0  0  0  0  0  0
   60.9348   36.3754   29.3381 H   0  0  0  0  0  0  0  0  0  0  0  0
   63.0827   35.7819   29.0005 H   0  0  0  0  0  0  0  0  0  0  0  0
   63.3522   36.7438   27.0140 H   0  0  0  0  0  0  0  0  0  0  0  0
   62.1667   38.5160   27.4955 H   0  0  0  0  0  0  0  0  0  0  0  0
   62.8521   38.9329   29.4644 H   0  0  0  0  0  0  0  0  0  0  0  0
   64.9867   38.5433   29.1871 H   0  0  0  0  0  0  0  0  0  0  0  0
   64.9298   40.9262   27.7535 H   0  0  0  0  0  0  0  0  0  0  0  0
   65.1450   39.4449   27.2403 H   0  0  0  0  0  0  0  0  0  0  0  0
  1  2  1  0  0  0  0
  1 82  1  0  0  0  0
  1 83  1  0  0  0  0
  1 84  1  0  0  0  0
  2  3  1  0  0  0  0
  3  4  1  0  0  0  0
  3 85  1  0  0  0  0
  3 86  1  0  0  0  0
  4  5  1  0  0  0  0
  4 87  1  0  0  0  0
  4 88  1  0  0  0  0
  5  6  1  0  0  0  0
  5 89  1  0  0  0  0
  6  7  1  0  0  0  0
  6 90  1  0  0  0  0
  7  8  1  0  0  0  0
  7 91  1  0  0  0  0
  8  9  1  0  0  0  0
  8 92  1  0  0  0  0
  9 10  1  0  0  0  0
  9 93  1  0  0  0  0
 10 11  1  0  0  0  0
 10 94  1  0  0  0  0
 11 12  1  0  0  0  0
 11 95  1  0  0  0  0
 12 13  1  0  0  0  0
 12 96  1  0  0  0  0
 13 14  1  0  0  0  0
 13 97  1  0  0  0  0
 14 15  1  0  0  0  0
 14 98  1  0  0  0  0
 15 16  1  0  0  0  0
 15 99  1  0  0  0  0
 16 17  1  0  0  0  0
 16100  1  0  0  0  0
 17 18  1  0  0  0  0
 17101  1  0  0  0  0
 18 19  1  0  0  0  0
 18102  1  0  0  0  0
 19 20  1  0  0  0  0
 19103  1  0  0  0  0
 20 21  1  0  0  0  0
 20104  1  0  0  0  0
 21 22  1  0  0  0  0
 21105  1  0  0  0  0
 22 23  1  0  0  0  0
 22106  1  0  0  0  0
 23 24  1  0  0  0  0
 23107  1  0  0  0  0
 24 25  1  0  0  0  0
 24108  1  0  0  0  0
 25 26  1  0  0  0  0
 25109  1  0  0  0  0
 26 27  1  0  0  0  0
 27 28  1  0  0  0  0
 28 29  1  0  0  0  0
 29 30  1  0  0  0  0
 30 31  1  0  0  0  0
 31 32  1  0  0  0  0
 32 33  1  0  0  0  0
 33 34  1  0  0  0  0
 34 35  1  0  0  0  0
 35 36  1  0  0  0  0
 36 37  1  0  0  0  0
 37 38  1  0  0  0  0
 37110  1  0  0  0  0
 38 39  1  0  0  0  0
 38111  1  0  0  0  0
 39 40  1  0  0  0  0
 39112  1  0  0  0  0
 40 41  1  0  0  0  0
 40113  1  0  0  0  0
 41 42  1  0  0  0  0
 41114  1  0  0  0  0
 42 43  1  0  0  0  0
 42115  1  0  0  0  0
 43 44  1  0  0  0  0
 43116  1  0  0  0  0
 44 45  1  0  0  0  0
 44117  1  0  0  0  0
 45 46  1  0  0  0  0
 45118  1  0  0  0  0
 46 47  1  0  0  0  0
 46119  1  0  0  0  0
 47 48  1  0  0  0  0
 47120  1  0  0  0  0
 48 49  1  0  0  0  0
 48121  1  0  0  0  0
 49 50  1  0  0  0  0
 49122  1  0  0  0  0
 50 51  1  0  0  0  0
 50123  1  0  0  0  0
 51 52  1  0  0  0  0
 51124  1  0  0  0  0
 52 53  1  0  0  0  0
 52125  1  0  0  0  0
 53 54  1  0  0  0  0
 53126  1  0  0  0  0
 54 55  1  0  0  0  0
 54127  1  0  0  0  0
 55 56  1  0  0  0  0
 55128  1  0  0  0  0
 56 57  1  0  0  0  0
 56129  1  0  0  0  0
 57 58  1  0  0  0  0
 57130  1  0  0  0  0
 58 59  1  0  0  0  0
 58131  1  0  0  0  0
 59 60  1  0  0  0  0
 59132  1  0  0  0  0
 60 61  1  0  0  0  0
 60133  1  0  0  0  0
 61 62  1  0  0  0  0
 61134  1  0  0  0  0
 62 63  1  0  0  0  0
 62135  1  0  0  0  0
 63 64  1  0  0  0  0
 63136  1  0  0  0  0
 64 65  1  0  0  0  0
 64137  1  0  0  0  0
 65 66  1  0  0  0  0
 65138  1  0  0  0  0
 66 67  1  0  0  0  0
 66139  1  0  0  0  0
 67 68  1  0  0  0  0
 67140  1  0  0  0  0
 68 69  1  0  0  0  0
 68141  1  0  0  0  0
 69 70  1  0  0  0  0
 69142  1  0  0  0  0
 70 71  1  0  0  0  0
 70143  1  0  0  0  0
 71 72  1  0  0  0  0
 71144  1  0  0  0  0
 72 73  1  0  0  0  0
 72145  1  0  0  0  0
 73 74  1  0  0  0  0
 73146  1  0  0  0  0
 74 75  1  0  0  0  0
 74147  1  0  0  0  0
 75 76  1  0  0  0  0
 75148  1  0  0  0  0
 76 77  1  0  0  0  0
 76149  1  0  0  0  0
 77 78  1  0  0  0  0
 77150  1  0  0  0  0
 78 79  1  0  0  0  0
 78151  1  0  0  0  0
 79 80  1  0  0  0  0
 79152  1  0  0  0  0
 80 81  1  0  0  0  0
 80153  1  0  0  0  0
 81154  1  0  0  0  0
 81155  1  0  0  0  0
M  END
$$$$
