
 OpenBabel04232216503D

 54 54  0  0  0  0  0  0  0  0999 V2000
    1.0551    0.3025   -0.0693 C   0  0  0  0  0  0  0  0  0  0  0  0
    2.5782    0.0407   -0.1172 C   0  0  0  0  0  0  0  0  0  0  0  0
    3.0927   -1.2655   -0.0681 N   0  0  0  0  0  0  0  0  0  0  0  0
    2.1456   -2.4033   -0.0497 C   0  0  0  0  0  0  0  0  0  0  0  0
    4.4821   -1.5816   -0.0644 C   0  0  0  0  0  0  0  0  0  0  0  0
    4.8253   -3.0887   -0.0373 C   0  0  0  0  0  0  0  0  0  0  0  0
    5.5561   -0.7358   -0.0768 C   0  0  0  0  0  0  0  0  0  0  0  0
    6.9706   -1.3406   -0.0445 C   0  0  0  0  0  0  0  0  0  0  0  0
    5.5420    0.7655   -0.1133 C   0  0  0  0  0  0  0  0  0  0  0  0
    6.9461    1.4425   -0.0180 C   0  0  0  0  0  0  0  0  0  0  0  0
    7.7276    1.6784   -1.3241 C   0  0  0  0  0  0  0  0  0  0  0  0
    7.1381    2.7149   -2.2649 C   0  0  0  0  0  0  0  0  0  0  0  0
    4.4424    1.5745   -0.1762 C   0  0  0  0  0  0  0  0  0  0  0  0
    4.6164    2.9652   -0.2310 N   0  0  0  0  0  0  0  0  0  0  0  0
    3.5601    3.9653   -0.2255 C   0  0  0  0  0  0  0  0  0  0  0  0
    4.2281    5.3475   -0.2923 C   0  0  0  0  0  0  0  0  0  0  0  0
    3.2280    6.4999   -0.3344 C   0  0  0  0  0  0  0  0  0  0  0  0
    3.9484    7.8529   -0.4016 C   0  0  0  0  0  0  0  0  0  0  0  0
    2.9490    9.0086   -0.4538 C   0  0  0  0  0  0  0  0  0  0  0  0
    3.6419   10.3606   -0.5231 C   0  0  0  0  0  0  0  0  0  0  0  0
    3.1460    1.1918   -0.1801 N   0  0  0  0  0  0  0  0  0  0  0  0
    0.3837   -0.5472   -0.0643 H   0  0  0  0  0  0  0  0  0  0  0  0
    0.7771    0.9144   -0.9347 H   0  0  0  0  0  0  0  0  0  0  0  0
    0.8353    0.8812    0.8366 H   0  0  0  0  0  0  0  0  0  0  0  0
    1.0856   -2.1771   -0.0477 H   0  0  0  0  0  0  0  0  0  0  0  0
    2.2938   -3.0023    0.8573 H   0  0  0  0  0  0  0  0  0  0  0  0
    2.2877   -3.0218   -0.9443 H   0  0  0  0  0  0  0  0  0  0  0  0
    3.9931   -3.7902   -0.0251 H   0  0  0  0  0  0  0  0  0  0  0  0
    5.3956   -3.3305    0.8676 H   0  0  0  0  0  0  0  0  0  0  0  0
    5.3900   -3.3616   -0.9369 H   0  0  0  0  0  0  0  0  0  0  0  0
    7.0407   -2.4267   -0.0939 H   0  0  0  0  0  0  0  0  0  0  0  0
    7.4789   -1.0864    0.8908 H   0  0  0  0  0  0  0  0  0  0  0  0
    7.5593   -1.0130   -0.9020 H   0  0  0  0  0  0  0  0  0  0  0  0
    7.5890    0.8794    0.6650 H   0  0  0  0  0  0  0  0  0  0  0  0
    6.9130    2.3886    0.5291 H   0  0  0  0  0  0  0  0  0  0  0  0
    7.8629    0.7498   -1.8831 H   0  0  0  0  0  0  0  0  0  0  0  0
    8.7350    2.0153   -1.0461 H   0  0  0  0  0  0  0  0  0  0  0  0
    6.1734    2.3920   -2.6654 H   0  0  0  0  0  0  0  0  0  0  0  0
    7.8146    2.8645   -3.1143 H   0  0  0  0  0  0  0  0  0  0  0  0
    7.0155    3.6817   -1.7678 H   0  0  0  0  0  0  0  0  0  0  0  0
    5.4474    3.2949    0.2277 H   0  0  0  0  0  0  0  0  0  0  0  0
    2.9625    3.8850    0.6897 H   0  0  0  0  0  0  0  0  0  0  0  0
    2.8987    3.8262   -1.0879 H   0  0  0  0  0  0  0  0  0  0  0  0
    4.8761    5.3936   -1.1774 H   0  0  0  0  0  0  0  0  0  0  0  0
    4.8850    5.4726    0.5789 H   0  0  0  0  0  0  0  0  0  0  0  0
    2.5910    6.4682    0.5574 H   0  0  0  0  0  0  0  0  0  0  0  0
    2.5751    6.3883   -1.2076 H   0  0  0  0  0  0  0  0  0  0  0  0
    4.5935    7.8844   -1.2884 H   0  0  0  0  0  0  0  0  0  0  0  0
    4.6002    7.9692    0.4734 H   0  0  0  0  0  0  0  0  0  0  0  0
    2.3069    8.9816    0.4332 H   0  0  0  0  0  0  0  0  0  0  0  0
    2.2989    8.8954   -1.3292 H   0  0  0  0  0  0  0  0  0  0  0  0
    4.2738   10.5259    0.3554 H   0  0  0  0  0  0  0  0  0  0  0  0
    2.8978   11.1626   -0.5602 H   0  0  0  0  0  0  0  0  0  0  0  0
    4.2678   10.4381   -1.4177 H   0  0  0  0  0  0  0  0  0  0  0  0
  1  2  1  0  0  0  0
  1 22  1  0  0  0  0
  1 23  1  0  0  0  0
  1 24  1  0  0  0  0
  2  3  1  0  0  0  0
  2 21  2  0  0  0  0
  3  4  1  0  0  0  0
  3  5  1  0  0  0  0
  4 25  1  0  0  0  0
  4 26  1  0  0  0  0
  4 27  1  0  0  0  0
  5  6  1  0  0  0  0
  5  7  2  0  0  0  0
  6 28  1  0  0  0  0
  6 29  1  0  0  0  0
  6 30  1  0  0  0  0
  7  8  1  0  0  0  0
  7  9  1  0  0  0  0
  8 31  1  0  0  0  0
  8 32  1  0  0  0  0
  8 33  1  0  0  0  0
  9 10  1  0  0  0  0
  9 13  2  0  0  0  0
 10 11  1  0  0  0  0
 10 34  1  0  0  0  0
 10 35  1  0  0  0  0
 11 12  1  0  0  0  0
 11 36  1  0  0  0  0
 11 37  1  0  0  0  0
 12 38  1  0  0  0  0
 12 39  1  0  0  0  0
 12 40  1  0  0  0  0
 13 14  1  0  0  0  0
 13 21  1  0  0  0  0
 14 15  1  0  0  0  0
 14 41  1  0  0  0  0
 15 16  1  0  0  0  0
 15 42  1  0  0  0  0
 15 43  1  0  0  0  0
 16 17  1  0  0  0  0
 16 44  1  0  0  0  0
 16 45  1  0  0  0  0
 17 18  1  0  0  0  0
 17 46  1  0  0  0  0
 17 47  1  0  0  0  0
 18 19  1  0  0  0  0
 18 48  1  0  0  0  0
 18 49  1  0  0  0  0
 19 20  1  0  0  0  0
 19 50  1  0  0  0  0
 19 51  1  0  0  0  0
 20 52  1  0  0  0  0
 20 53  1  0  0  0  0
 20 54  1  0  0  0  0
M  END
$$$$
