
 OpenBabel04232216473D

 49 51  0  0  0  0  0  0  0  0999 V2000
    2.3529   -0.0066   -2.7458 C   0  0  0  0  0  0  0  0  0  0  0  0
    3.7686    0.4722   -2.9061 C   0  0  0  0  0  0  0  0  0  0  0  0
    4.4943    0.2213   -1.6383 C   0  0  0  0  0  0  0  0  0  0  0  0
    5.4361    1.0201   -1.1123 C   0  0  0  0  0  0  0  0  0  0  0  0
    5.8195    2.2872   -1.7071 C   0  0  0  0  0  0  0  0  0  0  0  0
    4.6668    3.2694   -1.7119 C   0  0  0  0  0  0  0  0  0  0  0  0
    7.0474    2.4332   -2.2751 C   0  0  0  0  0  0  0  0  0  0  0  0
    7.4857    3.7135   -2.9227 C   0  0  0  0  0  0  0  0  0  0  0  0
    6.5140    4.8066   -3.3436 C   0  0  0  0  0  0  0  0  0  0  0  0
    8.5222    3.5888   -3.7715 C   0  0  0  0  0  0  0  0  0  0  0  0
    9.9450    3.2731   -3.2063 C   0  0  0  0  0  0  0  0  0  0  0  0
   10.4178    1.9770   -3.4996 O   0  0  0  0  0  0  0  0  0  0  0  0
   11.7771    1.7373   -3.7846 C   0  0  0  0  0  0  0  0  0  0  0  0
   11.8291    0.7969   -4.9986 C   0  0  0  0  0  0  0  0  0  0  0  0
   11.3048    1.4924   -6.2475 C   0  0  0  0  0  0  0  0  0  0  0  0
    9.7959    1.5258   -6.4677 C   0  0  0  0  0  0  0  0  0  0  0  0
    8.8016    1.2897   -5.3100 C   0  0  0  0  0  0  0  0  0  0  0  0
    8.7937    0.3588   -4.3881 N   0  0  0  0  0  0  0  0  0  0  0  0
    7.7042    0.5274   -3.3731 N   0  0  0  0  0  0  0  0  0  0  0  0
    7.9726    1.3662   -2.4511 N   0  0  0  0  0  0  0  0  0  0  0  0
    7.9894    3.4865   -5.1039 N   0  0  0  0  0  0  0  0  0  0  0  0
    7.6508    2.2532   -5.3533 C   0  0  0  0  0  0  0  0  0  0  0  0
    6.2719    1.4360   -5.4292 C   0  0  0  0  0  0  0  0  0  0  0  0
    5.1049    1.5928   -4.7700 C   0  0  0  0  0  0  0  0  0  0  0  0
    4.4065    0.4036   -4.1225 C   0  0  0  0  0  0  0  0  0  0  0  0
    1.6497    0.5193   -3.4123 H   0  0  0  0  0  0  0  0  0  0  0  0
    1.9803    0.1663   -1.7217 H   0  0  0  0  0  0  0  0  0  0  0  0
    2.2672   -1.0902   -2.9228 H   0  0  0  0  0  0  0  0  0  0  0  0
    4.1735   -0.6298   -1.0471 H   0  0  0  0  0  0  0  0  0  0  0  0
    5.8820    0.7819   -0.1547 H   0  0  0  0  0  0  0  0  0  0  0  0
    3.7818    2.8934   -1.1940 H   0  0  0  0  0  0  0  0  0  0  0  0
    4.3177    3.4607   -2.7243 H   0  0  0  0  0  0  0  0  0  0  0  0
    4.9210    4.2235   -1.2367 H   0  0  0  0  0  0  0  0  0  0  0  0
    5.6794    4.4297   -3.9331 H   0  0  0  0  0  0  0  0  0  0  0  0
    7.0099    5.5423   -3.9897 H   0  0  0  0  0  0  0  0  0  0  0  0
    6.1629    5.3852   -2.4880 H   0  0  0  0  0  0  0  0  0  0  0  0
    9.8775    3.3063   -2.1068 H   0  0  0  0  0  0  0  0  0  0  0  0
   10.6630    4.0460   -3.4837 H   0  0  0  0  0  0  0  0  0  0  0  0
   12.2410    1.2254   -2.9340 H   0  0  0  0  0  0  0  0  0  0  0  0
   12.3279    2.6617   -3.9779 H   0  0  0  0  0  0  0  0  0  0  0  0
   11.2584   -0.1213   -4.8291 H   0  0  0  0  0  0  0  0  0  0  0  0
   12.8686    0.4933   -5.1693 H   0  0  0  0  0  0  0  0  0  0  0  0
   11.7563    1.0198   -7.1273 H   0  0  0  0  0  0  0  0  0  0  0  0
   11.6932    2.5164   -6.2660 H   0  0  0  0  0  0  0  0  0  0  0  0
    9.5175    0.8832   -7.3188 H   0  0  0  0  0  0  0  0  0  0  0  0
    9.5913    2.5317   -6.8262 H   0  0  0  0  0  0  0  0  0  0  0  0
    6.5287    0.3947   -5.6503 H   0  0  0  0  0  0  0  0  0  0  0  0
    4.7252    2.5633   -4.5026 H   0  0  0  0  0  0  0  0  0  0  0  0
    5.1835   -0.3920   -4.0999 H   0  0  0  0  0  0  0  0  0  0  0  0
  1  2  1  0  0  0  0
  1 26  1  0  0  0  0
  1 27  1  0  0  0  0
  1 28  1  0  0  0  0
  2  3  1  0  0  0  0
  2 25  2  3  0  0  0
  3  4  2  3  0  0  0
  3 29  1  0  0  0  0
  4  5  1  0  0  0  0
  4 30  1  0  0  0  0
  5  6  1  0  0  0  0
  5  7  2  3  0  0  0
  6 31  1  0  0  0  0
  6 32  1  0  0  0  0
  6 33  1  0  0  0  0
  7  8  1  0  0  0  0
  7 20  1  0  0  0  0
  8  9  1  0  0  0  0
  8 10  2  3  0  0  0
  9 34  1  0  0  0  0
  9 35  1  0  0  0  0
  9 36  1  0  0  0  0
 10 11  1  0  0  0  0
 10 21  1  0  0  0  0
 11 12  1  0  0  0  0
 11 37  1  0  0  0  0
 11 38  1  0  0  0  0
 12 13  1  0  0  0  0
 13 14  1  0  0  0  0
 13 39  1  0  0  0  0
 13 40  1  0  0  0  0
 14 15  1  0  0  0  0
 14 41  1  0  0  0  0
 14 42  1  0  0  0  0
 15 16  1  0  0  0  0
 15 43  1  0  0  0  0
 15 44  1  0  0  0  0
 16 17  1  0  0  0  0
 16 45  1  0  0  0  0
 16 46  1  0  0  0  0
 17 18  2  3  0  0  0
 17 22  1  0  0  0  0
 18 19  1  0  0  0  0
 19 20  2  3  0  0  0
 21 22  2  3  0  0  0
 22 23  1  0  0  0  0
 23 24  2  3  0  0  0
 23 47  1  0  0  0  0
 24 25  1  0  0  0  0
 24 48  1  0  0  0  0
 25 49  1  0  0  0  0
M  END
$$$$
