
 OpenBabel04232216563D

202202  0  0  0  0  0  0  0  0999 V2000
   21.2215  -23.7729  -17.8348 C   0  0  0  0  0  0  0  0  0  0  0  0
   22.4432  -24.5537  -17.7061 N   0  0  0  0  0  0  0  0  0  0  0  0
   23.5508  -24.3535  -18.3285 C   0  0  0  0  0  0  0  0  0  0  0  0
   23.6309  -23.9588  -17.0866 C   0  0  0  0  0  0  0  0  0  0  0  0
   23.2766  -23.7057  -15.6758 C   0  0  0  0  0  0  0  0  0  0  0  0
   24.7319  -23.7217  -14.6153 S   0  0  0  0  0  0  0  0  0  0  0  0
   23.9592  -23.3194  -13.2027 O   0  0  0  0  0  0  0  0  0  0  0  0
   23.2426  -24.4627  -12.6885 O   0  0  0  0  0  0  0  0  0  0  0  0
   22.1576  -24.0254  -11.8529 O   0  0  0  0  0  0  0  0  0  0  0  0
   21.1614  -25.0509  -11.7755 O   0  0  0  0  0  0  0  0  0  0  0  0
   20.5010  -24.9864  -10.5095 O   0  0  0  0  0  0  0  0  0  0  0  0
   19.5886  -26.0760  -10.4138 O   0  0  0  0  0  0  0  0  0  0  0  0
   18.6744  -25.8323   -9.3555 O   0  0  0  0  0  0  0  0  0  0  0  0
   17.7929  -26.9402   -9.2591 O   0  0  0  0  0  0  0  0  0  0  0  0
   17.0276  -26.7995   -8.0802 O   0  0  0  0  0  0  0  0  0  0  0  0
   16.0739  -27.8391   -8.0332 O   0  0  0  0  0  0  0  0  0  0  0  0
   15.2592  -27.6291   -6.9026 O   0  0  0  0  0  0  0  0  0  0  0  0
   14.3832  -28.7225   -6.7734 O   0  0  0  0  0  0  0  0  0  0  0  0
   13.6108  -28.5246   -5.6140 O   0  0  0  0  0  0  0  0  0  0  0  0
   12.6673  -29.5655   -5.5371 O   0  0  0  0  0  0  0  0  0  0  0  0
   11.8735  -29.3525   -4.3896 O   0  0  0  0  0  0  0  0  0  0  0  0
   11.0254  -30.4631   -4.3985 C   0  0  0  0  0  0  0  0  0  0  0  0
   10.1784  -30.2536   -3.1935 C   0  0  0  0  0  0  0  0  0  0  0  0
    9.2191  -31.3950   -3.1080 C   0  0  0  0  0  0  0  0  0  0  0  0
    8.3670  -31.1740   -1.8923 C   0  0  0  0  0  0  0  0  0  0  0  0
    7.3979  -32.3171   -1.7953 C   0  0  0  0  0  0  0  0  0  0  0  0
    6.5417  -32.1114   -0.5743 C   0  0  0  0  0  0  0  0  0  0  0  0
    5.5690  -33.2587   -0.4735 C   0  0  0  0  0  0  0  0  0  0  0  0
    4.7059  -33.0556    0.7474 C   0  0  0  0  0  0  0  0  0  0  0  0
    3.7206  -34.1940    0.8537 C   0  0  0  0  0  0  0  0  0  0  0  0
    2.8446  -33.9805    2.0714 C   0  0  0  0  0  0  0  0  0  0  0  0
    1.8698  -35.1295    2.1783 C   0  0  0  0  0  0  0  0  0  0  0  0
    0.9847  -34.9741    3.4060 C   0  0  0  0  0  0  0  0  0  0  0  0
    0.0049  -36.1313    3.5281 C   0  0  0  0  0  0  0  0  0  0  0  0
    0.7343  -37.4606    3.6678 C   0  0  0  0  0  0  0  0  0  0  0  0
   -0.2448  -38.6087    3.7820 C   0  0  0  0  0  0  0  0  0  0  0  0
    0.5270  -39.9119    3.8905 C   0  0  0  0  0  0  0  0  0  0  0  0
   -0.4436  -41.0692    3.9980 C   0  0  0  0  0  0  0  0  0  0  0  0
    0.3185  -42.3739    4.1202 C   0  0  0  0  0  0  0  0  0  0  0  0
   -0.6615  -43.5256    4.2302 C   0  0  0  0  0  0  0  0  0  0  0  0
    0.0930  -44.8334    4.3582 C   0  0  0  0  0  0  0  0  0  0  0  0
   -0.8893  -45.9840    4.4697 C   0  0  0  0  0  0  0  0  0  0  0  0
   -0.1357  -47.2935    4.5989 C   0  0  0  0  0  0  0  0  0  0  0  0
   -1.1185  -48.4433    4.7104 C   0  0  0  0  0  0  0  0  0  0  0  0
   -0.3640  -49.7539    4.8396 C   0  0  0  0  0  0  0  0  0  0  0  0
   -1.3424  -50.9063    4.9526 C   0  0  0  0  0  0  0  0  0  0  0  0
   -0.5875  -52.2141    5.0849 C   0  0  0  0  0  0  0  0  0  0  0  0
   -1.5726  -53.3661    5.1879 C   0  0  0  0  0  0  0  0  0  0  0  0
   -0.8190  -54.6719    5.3250 C   0  0  0  0  0  0  0  0  0  0  0  0
   -1.8012  -55.8210    5.4372 C   0  0  0  0  0  0  0  0  0  0  0  0
   -1.0471  -57.1291    5.5740 C   0  0  0  0  0  0  0  0  0  0  0  0
   -2.0292  -58.2794    5.6818 C   0  0  0  0  0  0  0  0  0  0  0  0
   -1.2739  -59.5873    5.8173 C   0  0  0  0  0  0  0  0  0  0  0  0
   -2.2568  -60.7383    5.9263 C   0  0  0  0  0  0  0  0  0  0  0  0
   -1.5023  -62.0469    6.0626 C   0  0  0  0  0  0  0  0  0  0  0  0
   -2.4843  -63.1975    6.1702 C   0  0  0  0  0  0  0  0  0  0  0  0
   -1.7302  -64.5063    6.3069 C   0  0  0  0  0  0  0  0  0  0  0  0
   -2.7121  -65.6574    6.4122 C   0  0  0  0  0  0  0  0  0  0  0  0
   -1.9579  -66.9659    6.5505 C   0  0  0  0  0  0  0  0  0  0  0  0
   -2.9398  -68.1171    6.6537 C   0  0  0  0  0  0  0  0  0  0  0  0
   -2.1856  -69.4257    6.7901 C   0  0  0  0  0  0  0  0  0  0  0  0
   -3.1675  -70.5770    6.8915 C   0  0  0  0  0  0  0  0  0  0  0  0
   -2.4132  -71.8858    7.0261 C   0  0  0  0  0  0  0  0  0  0  0  0
   -3.3952  -73.0370    7.1294 C   0  0  0  0  0  0  0  0  0  0  0  0
   -2.6409  -74.3456    7.2657 C   0  0  0  0  0  0  0  0  0  0  0  0
   -3.6228  -75.4967    7.3709 C   0  0  0  0  0  0  0  0  0  0  0  0
   -2.8686  -76.8055    7.5073 C   0  0  0  0  0  0  0  0  0  0  0  0
   -3.8503  -77.9572    7.6109 C   0  0  0  0  0  0  0  0  0  0  0  0
   -3.0962  -79.2667    7.7455 C   0  0  0  0  0  0  0  0  0  0  0  0
   -4.0777  -80.4188    7.8503 C   0  0  0  0  0  0  0  0  0  0  0  0
   -3.3244  -81.7293    7.9872 C   0  0  0  0  0  0  0  0  0  0  0  0
   -4.3063  -82.8825    8.0908 C   0  0  0  0  0  0  0  0  0  0  0  0
   -3.5547  -84.1949    8.2276 C   0  0  0  0  0  0  0  0  0  0  0  0
   -4.5362  -85.3504    8.3295 C   0  0  0  0  0  0  0  0  0  0  0  0
   -3.7854  -86.6650    8.4682 C   0  0  0  0  0  0  0  0  0  0  0  0
   -4.7642  -87.8257    8.5707 C   0  0  0  0  0  0  0  0  0  0  0  0
   -4.0124  -89.1426    8.7099 C   0  0  0  0  0  0  0  0  0  0  0  0
   -4.9836  -90.3121    8.8151 C   0  0  0  0  0  0  0  0  0  0  0  0
   -4.2341  -91.6244    8.9539 C   0  0  0  0  0  0  0  0  0  0  0  0
   20.8333  -23.8042  -18.8545 H   0  0  0  0  0  0  0  0  0  0  0  0
   21.3557  -22.7227  -17.5429 H   0  0  0  0  0  0  0  0  0  0  0  0
   20.4650  -24.2012  -17.1671 H   0  0  0  0  0  0  0  0  0  0  0  0
   24.0425  -24.4233  -19.2764 H   0  0  0  0  0  0  0  0  0  0  0  0
   22.5664  -24.4450  -15.2884 H   0  0  0  0  0  0  0  0  0  0  0  0
   22.8145  -22.7058  -15.5878 H   0  0  0  0  0  0  0  0  0  0  0  0
   11.6103  -31.3871   -4.3326 H   0  0  0  0  0  0  0  0  0  0  0  0
   10.4306  -30.4748   -5.3197 H   0  0  0  0  0  0  0  0  0  0  0  0
    9.6561  -29.2902   -3.2663 H   0  0  0  0  0  0  0  0  0  0  0  0
   10.8116  -30.1888   -2.2983 H   0  0  0  0  0  0  0  0  0  0  0  0
    9.7645  -32.3448   -3.0344 H   0  0  0  0  0  0  0  0  0  0  0  0
    8.6014  -31.4416   -4.0143 H   0  0  0  0  0  0  0  0  0  0  0  0
    7.8339  -30.2180   -1.9717 H   0  0  0  0  0  0  0  0  0  0  0  0
    8.9964  -31.1229   -0.9946 H   0  0  0  0  0  0  0  0  0  0  0  0
    7.9423  -33.2668   -1.7262 H   0  0  0  0  0  0  0  0  0  0  0  0
    6.7756  -32.3620   -2.6986 H   0  0  0  0  0  0  0  0  0  0  0  0
    6.0041  -31.1579   -0.6470 H   0  0  0  0  0  0  0  0  0  0  0  0
    7.1713  -32.0632    0.3231 H   0  0  0  0  0  0  0  0  0  0  0  0
    6.1135  -34.2088   -0.4035 H   0  0  0  0  0  0  0  0  0  0  0  0
    4.9483  -33.3055   -1.3771 H   0  0  0  0  0  0  0  0  0  0  0  0
    4.1722  -32.1001    0.6755 H   0  0  0  0  0  0  0  0  0  0  0  0
    5.3330  -33.0129    1.6466 H   0  0  0  0  0  0  0  0  0  0  0  0
    4.2600  -35.1470    0.9323 H   0  0  0  0  0  0  0  0  0  0  0  0
    3.1049  -34.2470   -0.0530 H   0  0  0  0  0  0  0  0  0  0  0  0
    2.3053  -33.0304    1.9925 H   0  0  0  0  0  0  0  0  0  0  0  0
    3.4686  -33.9351    2.9725 H   0  0  0  0  0  0  0  0  0  0  0  0
    2.4578  -36.0518    2.2305 H   0  0  0  0  0  0  0  0  0  0  0  0
    1.2512  -35.1912    1.2745 H   0  0  0  0  0  0  0  0  0  0  0  0
    0.4258  -34.0340    3.3422 H   0  0  0  0  0  0  0  0  0  0  0  0
    1.6067  -34.9189    4.3088 H   0  0  0  0  0  0  0  0  0  0  0  0
   -0.6482  -36.1545    2.6470 H   0  0  0  0  0  0  0  0  0  0  0  0
   -0.6361  -35.9660    4.4012 H   0  0  0  0  0  0  0  0  0  0  0  0
    1.3957  -37.4335    4.5430 H   0  0  0  0  0  0  0  0  0  0  0  0
    1.3645  -37.6551    2.7944 H   0  0  0  0  0  0  0  0  0  0  0  0
   -0.8917  -38.6327    2.8954 H   0  0  0  0  0  0  0  0  0  0  0  0
   -0.8884  -38.4732    4.6579 H   0  0  0  0  0  0  0  0  0  0  0  0
    1.1831  -39.8870    4.7703 H   0  0  0  0  0  0  0  0  0  0  0  0
    1.1719  -40.0454    3.0130 H   0  0  0  0  0  0  0  0  0  0  0  0
   -1.0910  -41.0958    3.1127 H   0  0  0  0  0  0  0  0  0  0  0  0
   -1.0919  -40.9304    4.8715 H   0  0  0  0  0  0  0  0  0  0  0  0
    0.9676  -42.3480    5.0043 H   0  0  0  0  0  0  0  0  0  0  0  0
    0.9660  -42.5143    3.2458 H   0  0  0  0  0  0  0  0  0  0  0  0
   -1.3088  -43.5510    3.3447 H   0  0  0  0  0  0  0  0  0  0  0  0
   -1.3111  -43.3808    5.1026 H   0  0  0  0  0  0  0  0  0  0  0  0
    0.7403  -44.8069    5.2438 H   0  0  0  0  0  0  0  0  0  0  0  0
    0.7426  -44.9780    3.4856 H   0  0  0  0  0  0  0  0  0  0  0  0
   -1.5365  -46.0096    3.5840 H   0  0  0  0  0  0  0  0  0  0  0  0
   -1.5381  -45.8380    5.3415 H   0  0  0  0  0  0  0  0  0  0  0  0
    0.5115  -47.2661    5.4839 H   0  0  0  0  0  0  0  0  0  0  0  0
    0.5136  -47.4385    3.7262 H   0  0  0  0  0  0  0  0  0  0  0  0
   -1.7647  -48.4693    3.8242 H   0  0  0  0  0  0  0  0  0  0  0  0
   -1.7679  -48.2968    5.5818 H   0  0  0  0  0  0  0  0  0  0  0  0
    0.2822  -49.7256    5.7253 H   0  0  0  0  0  0  0  0  0  0  0  0
    0.2852  -49.9004    3.9672 H   0  0  0  0  0  0  0  0  0  0  0  0
   -1.9887  -50.9341    4.0637 H   0  0  0  0  0  0  0  0  0  0  0  0
   -1.9955  -50.7577    5.8206 H   0  0  0  0  0  0  0  0  0  0  0  0
    0.0540  -52.1925    5.9738 H   0  0  0  0  0  0  0  0  0  0  0  0
    0.0627  -52.3638    4.2149 H   0  0  0  0  0  0  0  0  0  0  0  0
   -2.2178  -53.3929    4.3025 H   0  0  0  0  0  0  0  0  0  0  0  0
   -2.2254  -53.2169    6.0591 H   0  0  0  0  0  0  0  0  0  0  0  0
   -0.1739  -54.6431    6.2124 H   0  0  0  0  0  0  0  0  0  0  0  0
   -0.1662  -54.8204    4.4542 H   0  0  0  0  0  0  0  0  0  0  0  0
   -2.4442  -55.8500    4.5495 H   0  0  0  0  0  0  0  0  0  0  0  0
   -2.4546  -55.6723    6.3063 H   0  0  0  0  0  0  0  0  0  0  0  0
   -0.4044  -57.0999    6.4621 H   0  0  0  0  0  0  0  0  0  0  0  0
   -0.3935  -57.2753    4.7048 H   0  0  0  0  0  0  0  0  0  0  0  0
   -2.6708  -58.3078    4.7923 H   0  0  0  0  0  0  0  0  0  0  0  0
   -2.6835  -58.1321    6.5497 H   0  0  0  0  0  0  0  0  0  0  0  0
   -0.6314  -59.5586    6.7053 H   0  0  0  0  0  0  0  0  0  0  0  0
   -0.6214  -59.7341    4.9486 H   0  0  0  0  0  0  0  0  0  0  0  0
   -2.8988  -60.7672    5.0375 H   0  0  0  0  0  0  0  0  0  0  0  0
   -2.9104  -60.5908    6.7947 H   0  0  0  0  0  0  0  0  0  0  0  0
   -0.8610  -62.0179    6.9524 H   0  0  0  0  0  0  0  0  0  0  0  0
   -0.8475  -62.1935    5.1952 H   0  0  0  0  0  0  0  0  0  0  0  0
   -3.1256  -63.2265    5.2806 H   0  0  0  0  0  0  0  0  0  0  0  0
   -3.1393  -63.0510    7.0379 H   0  0  0  0  0  0  0  0  0  0  0  0
   -1.0899  -64.4780    7.1972 H   0  0  0  0  0  0  0  0  0  0  0  0
   -1.0742  -64.6525    5.4398 H   0  0  0  0  0  0  0  0  0  0  0  0
   -3.3514  -65.6863    5.5212 H   0  0  0  0  0  0  0  0  0  0  0  0
   -3.3690  -65.5109    7.2785 H   0  0  0  0  0  0  0  0  0  0  0  0
   -1.3196  -66.9374    7.4422 H   0  0  0  0  0  0  0  0  0  0  0  0
   -1.3000  -67.1118    5.6848 H   0  0  0  0  0  0  0  0  0  0  0  0
   -3.5789  -68.1448    5.7625 H   0  0  0  0  0  0  0  0  0  0  0  0
   -3.5970  -67.9719    7.5200 H   0  0  0  0  0  0  0  0  0  0  0  0
   -1.5474  -69.3986    7.6820 H   0  0  0  0  0  0  0  0  0  0  0  0
   -1.5276  -69.5703    5.9244 H   0  0  0  0  0  0  0  0  0  0  0  0
   -3.8065  -70.6036    6.0002 H   0  0  0  0  0  0  0  0  0  0  0  0
   -3.8247  -70.4330    7.7580 H   0  0  0  0  0  0  0  0  0  0  0  0
   -1.7732  -71.8590    7.9167 H   0  0  0  0  0  0  0  0  0  0  0  0
   -1.7570  -72.0304    6.1590 H   0  0  0  0  0  0  0  0  0  0  0  0
   -4.0345  -73.0646    6.2383 H   0  0  0  0  0  0  0  0  0  0  0  0
   -4.0521  -72.8918    7.9958 H   0  0  0  0  0  0  0  0  0  0  0  0
   -2.0007  -74.3175    8.1560 H   0  0  0  0  0  0  0  0  0  0  0  0
   -1.9849  -74.4913    6.3986 H   0  0  0  0  0  0  0  0  0  0  0  0
   -4.2631  -75.5247    6.4805 H   0  0  0  0  0  0  0  0  0  0  0  0
   -4.2788  -75.3508    8.2379 H   0  0  0  0  0  0  0  0  0  0  0  0
   -2.2292  -76.7775    8.3982 H   0  0  0  0  0  0  0  0  0  0  0  0
   -2.2117  -76.9506    6.6408 H   0  0  0  0  0  0  0  0  0  0  0  0
   -4.4906  -77.9839    6.7205 H   0  0  0  0  0  0  0  0  0  0  0  0
   -4.5062  -77.8121    8.4781 H   0  0  0  0  0  0  0  0  0  0  0  0
   -2.4552  -79.2388    8.6353 H   0  0  0  0  0  0  0  0  0  0  0  0
   -2.4408  -79.4111    6.8777 H   0  0  0  0  0  0  0  0  0  0  0  0
   -4.7174  -80.4463    6.9596 H   0  0  0  0  0  0  0  0  0  0  0  0
   -4.7341  -80.2725    8.7169 H   0  0  0  0  0  0  0  0  0  0  0  0
   -2.6853  -81.7007    8.8783 H   0  0  0  0  0  0  0  0  0  0  0  0
   -2.6671  -81.8740    7.1210 H   0  0  0  0  0  0  0  0  0  0  0  0
   -4.9454  -82.9086    7.1996 H   0  0  0  0  0  0  0  0  0  0  0  0
   -4.9632  -82.7356    8.9569 H   0  0  0  0  0  0  0  0  0  0  0  0
   -2.9163  -84.1666    9.1193 H   0  0  0  0  0  0  0  0  0  0  0  0
   -2.8965  -84.3386    7.3619 H   0  0  0  0  0  0  0  0  0  0  0  0
   -5.1733  -85.3761    7.4370 H   0  0  0  0  0  0  0  0  0  0  0  0
   -5.1949  -85.2030    9.1942 H   0  0  0  0  0  0  0  0  0  0  0  0
   -3.1476  -86.6345    9.3602 H   0  0  0  0  0  0  0  0  0  0  0  0
   -3.1260  -86.8077    7.6033 H   0  0  0  0  0  0  0  0  0  0  0  0
   -5.4013  -87.8519    7.6782 H   0  0  0  0  0  0  0  0  0  0  0  0
   -5.4229  -87.6784    9.4354 H   0  0  0  0  0  0  0  0  0  0  0  0
   -3.3729  -89.1086    9.6006 H   0  0  0  0  0  0  0  0  0  0  0  0
   -3.3532  -89.2829    7.8443 H   0  0  0  0  0  0  0  0  0  0  0  0
   -5.6216  -90.3480    7.9244 H   0  0  0  0  0  0  0  0  0  0  0  0
   -5.6412  -90.1736    9.6812 H   0  0  0  0  0  0  0  0  0  0  0  0
   -3.5888  -91.7974    8.0867 H   0  0  0  0  0  0  0  0  0  0  0  0
   -4.9391  -92.4570    9.0287 H   0  0  0  0  0  0  0  0  0  0  0  0
   -3.6085  -91.6220    9.8522 H   0  0  0  0  0  0  0  0  0  0  0  0
  1  2  1  0  0  0  0
  1 80  1  0  0  0  0
  1 81  1  0  0  0  0
  1 82  1  0  0  0  0
  2  3  1  0  0  0  0
  2  4  1  0  0  0  0
  3  4  2  0  0  0  0
  3 83  1  0  0  0  0
  4  5  1  0  0  0  0
  5  6  1  0  0  0  0
  5 84  1  0  0  0  0
  5 85  1  0  0  0  0
  6  7  1  0  0  0  0
  7  8  1  0  0  0  0
  8  9  1  0  0  0  0
  9 10  1  0  0  0  0
 10 11  1  0  0  0  0
 11 12  1  0  0  0  0
 12 13  1  0  0  0  0
 13 14  1  0  0  0  0
 14 15  1  0  0  0  0
 15 16  1  0  0  0  0
 16 17  1  0  0  0  0
 17 18  1  0  0  0  0
 18 19  1  0  0  0  0
 19 20  1  0  0  0  0
 20 21  1  0  0  0  0
 21 22  1  0  0  0  0
 22 23  1  0  0  0  0
 22 86  1  0  0  0  0
 22 87  1  0  0  0  0
 23 24  1  0  0  0  0
 23 88  1  0  0  0  0
 23 89  1  0  0  0  0
 24 25  1  0  0  0  0
 24 90  1  0  0  0  0
 24 91  1  0  0  0  0
 25 26  1  0  0  0  0
 25 92  1  0  0  0  0
 25 93  1  0  0  0  0
 26 27  1  0  0  0  0
 26 94  1  0  0  0  0
 26 95  1  0  0  0  0
 27 28  1  0  0  0  0
 27 96  1  0  0  0  0
 27 97  1  0  0  0  0
 28 29  1  0  0  0  0
 28 98  1  0  0  0  0
 28 99  1  0  0  0  0
 29 30  1  0  0  0  0
 29100  1  0  0  0  0
 29101  1  0  0  0  0
 30 31  1  0  0  0  0
 30102  1  0  0  0  0
 30103  1  0  0  0  0
 31 32  1  0  0  0  0
 31104  1  0  0  0  0
 31105  1  0  0  0  0
 32 33  1  0  0  0  0
 32106  1  0  0  0  0
 32107  1  0  0  0  0
 33 34  1  0  0  0  0
 33108  1  0  0  0  0
 33109  1  0  0  0  0
 34 35  1  0  0  0  0
 34110  1  0  0  0  0
 34111  1  0  0  0  0
 35 36  1  0  0  0  0
 35112  1  0  0  0  0
 35113  1  0  0  0  0
 36 37  1  0  0  0  0
 36114  1  0  0  0  0
 36115  1  0  0  0  0
 37 38  1  0  0  0  0
 37116  1  0  0  0  0
 37117  1  0  0  0  0
 38 39  1  0  0  0  0
 38118  1  0  0  0  0
 38119  1  0  0  0  0
 39 40  1  0  0  0  0
 39120  1  0  0  0  0
 39121  1  0  0  0  0
 40 41  1  0  0  0  0
 40122  1  0  0  0  0
 40123  1  0  0  0  0
 41 42  1  0  0  0  0
 41124  1  0  0  0  0
 41125  1  0  0  0  0
 42 43  1  0  0  0  0
 42126  1  0  0  0  0
 42127  1  0  0  0  0
 43 44  1  0  0  0  0
 43128  1  0  0  0  0
 43129  1  0  0  0  0
 44 45  1  0  0  0  0
 44130  1  0  0  0  0
 44131  1  0  0  0  0
 45 46  1  0  0  0  0
 45132  1  0  0  0  0
 45133  1  0  0  0  0
 46 47  1  0  0  0  0
 46134  1  0  0  0  0
 46135  1  0  0  0  0
 47 48  1  0  0  0  0
 47136  1  0  0  0  0
 47137  1  0  0  0  0
 48 49  1  0  0  0  0
 48138  1  0  0  0  0
 48139  1  0  0  0  0
 49 50  1  0  0  0  0
 49140  1  0  0  0  0
 49141  1  0  0  0  0
 50 51  1  0  0  0  0
 50142  1  0  0  0  0
 50143  1  0  0  0  0
 51 52  1  0  0  0  0
 51144  1  0  0  0  0
 51145  1  0  0  0  0
 52 53  1  0  0  0  0
 52146  1  0  0  0  0
 52147  1  0  0  0  0
 53 54  1  0  0  0  0
 53148  1  0  0  0  0
 53149  1  0  0  0  0
 54 55  1  0  0  0  0
 54150  1  0  0  0  0
 54151  1  0  0  0  0
 55 56  1  0  0  0  0
 55152  1  0  0  0  0
 55153  1  0  0  0  0
 56 57  1  0  0  0  0
 56154  1  0  0  0  0
 56155  1  0  0  0  0
 57 58  1  0  0  0  0
 57156  1  0  0  0  0
 57157  1  0  0  0  0
 58 59  1  0  0  0  0
 58158  1  0  0  0  0
 58159  1  0  0  0  0
 59 60  1  0  0  0  0
 59160  1  0  0  0  0
 59161  1  0  0  0  0
 60 61  1  0  0  0  0
 60162  1  0  0  0  0
 60163  1  0  0  0  0
 61 62  1  0  0  0  0
 61164  1  0  0  0  0
 61165  1  0  0  0  0
 62 63  1  0  0  0  0
 62166  1  0  0  0  0
 62167  1  0  0  0  0
 63 64  1  0  0  0  0
 63168  1  0  0  0  0
 63169  1  0  0  0  0
 64 65  1  0  0  0  0
 64170  1  0  0  0  0
 64171  1  0  0  0  0
 65 66  1  0  0  0  0
 65172  1  0  0  0  0
 65173  1  0  0  0  0
 66 67  1  0  0  0  0
 66174  1  0  0  0  0
 66175  1  0  0  0  0
 67 68  1  0  0  0  0
 67176  1  0  0  0  0
 67177  1  0  0  0  0
 68 69  1  0  0  0  0
 68178  1  0  0  0  0
 68179  1  0  0  0  0
 69 70  1  0  0  0  0
 69180  1  0  0  0  0
 69181  1  0  0  0  0
 70 71  1  0  0  0  0
 70182  1  0  0  0  0
 70183  1  0  0  0  0
 71 72  1  0  0  0  0
 71184  1  0  0  0  0
 71185  1  0  0  0  0
 72 73  1  0  0  0  0
 72186  1  0  0  0  0
 72187  1  0  0  0  0
 73 74  1  0  0  0  0
 73188  1  0  0  0  0
 73189  1  0  0  0  0
 74 75  1  0  0  0  0
 74190  1  0  0  0  0
 74191  1  0  0  0  0
 75 76  1  0  0  0  0
 75192  1  0  0  0  0
 75193  1  0  0  0  0
 76 77  1  0  0  0  0
 76194  1  0  0  0  0
 76195  1  0  0  0  0
 77 78  1  0  0  0  0
 77196  1  0  0  0  0
 77197  1  0  0  0  0
 78 79  1  0  0  0  0
 78198  1  0  0  0  0
 78199  1  0  0  0  0
 79200  1  0  0  0  0
 79201  1  0  0  0  0
 79202  1  0  0  0  0
M  END
$$$$
