
 OpenBabel04232216433D

237236  0  0  0  0  0  0  0  0999 V2000
    0.9070   -0.1290    0.0425 C   0  0  0  0  0  0  0  0  0  0  0  0
    2.4339   -0.1322    0.0202 C   0  0  0  0  0  0  0  0  0  0  0  0
    2.9341    0.3821   -1.3326 C   0  0  0  0  0  0  0  0  0  0  0  0
    2.9815    0.6934    1.1940 C   0  0  0  0  0  0  0  0  0  0  0  0
    4.5006    0.6854    1.2245 C   0  0  0  0  0  0  0  0  0  0  0  0
    4.9653    1.4373    2.3390 O   0  0  0  0  0  0  0  0  0  0  0  0
    6.3885    1.4516    2.3297 C   0  0  0  0  0  0  0  0  0  0  0  0
    6.8784    2.2876    3.4905 C   0  0  0  0  0  0  0  0  0  0  0  0
    8.3962    2.2946    3.5015 C   0  0  0  0  0  0  0  0  0  0  0  0
    8.9134    3.1224    4.6615 C   0  0  0  0  0  0  0  0  0  0  0  0
   10.4313    3.1178    4.6644 C   0  0  0  0  0  0  0  0  0  0  0  0
   10.9466    3.9432    5.8281 C   0  0  0  0  0  0  0  0  0  0  0  0
   12.4636    3.9412    5.8337 C   0  0  0  0  0  0  0  0  0  0  0  0
   12.9747    4.7663    6.9998 C   0  0  0  0  0  0  0  0  0  0  0  0
   14.4914    4.7643    7.0072 C   0  0  0  0  0  0  0  0  0  0  0  0
   15.0016    5.5892    8.1733 C   0  0  0  0  0  0  0  0  0  0  0  0
   16.5183    5.5888    8.1797 C   0  0  0  0  0  0  0  0  0  0  0  0
   17.0284    6.4150    9.3449 C   0  0  0  0  0  0  0  0  0  0  0  0
   18.5450    6.4162    9.3500 C   0  0  0  0  0  0  0  0  0  0  0  0
   19.0551    7.2410   10.5161 C   0  0  0  0  0  0  0  0  0  0  0  0
   20.5718    7.2436   10.5202 C   0  0  0  0  0  0  0  0  0  0  0  0
   21.0818    8.0669   11.6873 C   0  0  0  0  0  0  0  0  0  0  0  0
   22.5985    8.0680   11.6924 C   0  0  0  0  0  0  0  0  0  0  0  0
   23.1085    8.8925   12.8587 C   0  0  0  0  0  0  0  0  0  0  0  0
   24.6252    8.8922   12.8648 C   0  0  0  0  0  0  0  0  0  0  0  0
   25.1352    9.7169   14.0310 C   0  0  0  0  0  0  0  0  0  0  0  0
   26.6518    9.7178   14.0361 C   0  0  0  0  0  0  0  0  0  0  0  0
   27.1619   10.5426   15.2022 C   0  0  0  0  0  0  0  0  0  0  0  0
   28.6785   10.5438   15.2073 C   0  0  0  0  0  0  0  0  0  0  0  0
   29.1885   11.3684   16.3735 C   0  0  0  0  0  0  0  0  0  0  0  0
   30.7052   11.3695   16.3786 C   0  0  0  0  0  0  0  0  0  0  0  0
   31.2152   12.1927   17.5458 C   0  0  0  0  0  0  0  0  0  0  0  0
   32.7318   12.1938   17.5509 C   0  0  0  0  0  0  0  0  0  0  0  0
   33.2418   13.0168   18.7183 C   0  0  0  0  0  0  0  0  0  0  0  0
   34.7585   13.0179   18.7232 C   0  0  0  0  0  0  0  0  0  0  0  0
   35.2685   13.8409   19.8906 C   0  0  0  0  0  0  0  0  0  0  0  0
   36.7851   13.8437   19.8945 C   0  0  0  0  0  0  0  0  0  0  0  0
   37.2952   14.6652   21.0629 C   0  0  0  0  0  0  0  0  0  0  0  0
   38.8118   14.6694   21.0658 C   0  0  0  0  0  0  0  0  0  0  0  0
   39.3218   15.4892   22.2354 C   0  0  0  0  0  0  0  0  0  0  0  0
   40.8384   15.4921   22.2392 C   0  0  0  0  0  0  0  0  0  0  0  0
   41.3485   16.3102   23.4100 C   0  0  0  0  0  0  0  0  0  0  0  0
   42.8651   16.3129   23.4139 C   0  0  0  0  0  0  0  0  0  0  0  0
   43.3752   17.1308   24.5848 C   0  0  0  0  0  0  0  0  0  0  0  0
   44.8918   17.1336   24.5887 C   0  0  0  0  0  0  0  0  0  0  0  0
   45.4018   17.9518   25.7594 C   0  0  0  0  0  0  0  0  0  0  0  0
   46.9185   17.9546   25.7633 C   0  0  0  0  0  0  0  0  0  0  0  0
   47.4285   18.7742   26.9330 C   0  0  0  0  0  0  0  0  0  0  0  0
   48.9451   18.7786   26.9358 C   0  0  0  0  0  0  0  0  0  0  0  0
   49.4552   19.5969   28.1065 C   0  0  0  0  0  0  0  0  0  0  0  0
   50.9718   19.6029   28.1080 C   0  0  0  0  0  0  0  0  0  0  0  0
   51.4818   20.4209   29.2789 C   0  0  0  0  0  0  0  0  0  0  0  0
   52.9984   20.4285   29.2794 C   0  0  0  0  0  0  0  0  0  0  0  0
   53.5085   21.2452   30.4512 C   0  0  0  0  0  0  0  0  0  0  0  0
   55.0251   21.2544   30.4506 C   0  0  0  0  0  0  0  0  0  0  0  0
   55.5352   22.0726   31.6213 C   0  0  0  0  0  0  0  0  0  0  0  0
   57.0518   22.0820   31.6206 C   0  0  0  0  0  0  0  0  0  0  0  0
   57.5615   22.9016   32.7903 C   0  0  0  0  0  0  0  0  0  0  0  0
   59.0779   22.9107   32.7893 C   0  0  0  0  0  0  0  0  0  0  0  0
   59.5887   23.7309   33.9591 C   0  0  0  0  0  0  0  0  0  0  0  0
   61.1048   23.7411   33.9579 C   0  0  0  0  0  0  0  0  0  0  0  0
   61.6157   24.5585   35.1286 C   0  0  0  0  0  0  0  0  0  0  0  0
   63.1311   24.5709   35.1275 C   0  0  0  0  0  0  0  0  0  0  0  0
   63.6415   25.3899   36.2966 C   0  0  0  0  0  0  0  0  0  0  0  0
   65.1589   25.3997   36.2968 C   0  0  0  0  0  0  0  0  0  0  0  0
   65.6695   26.2196   37.4654 C   0  0  0  0  0  0  0  0  0  0  0  0
   67.1862   26.2284   37.4639 C   0  0  0  0  0  0  0  0  0  0  0  0
   67.6970   27.0454   38.6357 C   0  0  0  0  0  0  0  0  0  0  0  0
   69.2146   27.0549   38.6345 C   0  0  0  0  0  0  0  0  0  0  0  0
   69.7259   27.8723   39.8060 C   0  0  0  0  0  0  0  0  0  0  0  0
   71.2427   27.8833   39.8068 C   0  0  0  0  0  0  0  0  0  0  0  0
   71.7556   28.6997   40.9799 C   0  0  0  0  0  0  0  0  0  0  0  0
   73.2732   28.7149   40.9802 C   0  0  0  0  0  0  0  0  0  0  0  0
   73.7878   29.5346   42.1522 C   0  0  0  0  0  0  0  0  0  0  0  0
   75.3072   29.5469   42.1558 C   0  0  0  0  0  0  0  0  0  0  0  0
   75.8250   30.3696   43.3290 C   0  0  0  0  0  0  0  0  0  0  0  0
   77.3458   30.3814   43.3350 C   0  0  0  0  0  0  0  0  0  0  0  0
   77.8781   31.2029   44.5037 C   0  0  0  0  0  0  0  0  0  0  0  0
   79.3963   31.2113   44.5052 C   0  0  0  0  0  0  0  0  0  0  0  0
    0.5087   -0.7446   -0.7705 H   0  0  0  0  0  0  0  0  0  0  0  0
    0.5126    0.8859   -0.0748 H   0  0  0  0  0  0  0  0  0  0  0  0
    0.5300   -0.5350    0.9866 H   0  0  0  0  0  0  0  0  0  0  0  0
    2.7735   -1.1695    0.1376 H   0  0  0  0  0  0  0  0  0  0  0  0
    2.6671    1.4343   -1.4769 H   0  0  0  0  0  0  0  0  0  0  0  0
    2.5035   -0.1987   -2.1539 H   0  0  0  0  0  0  0  0  0  0  0  0
    4.0211    0.2923   -1.4227 H   0  0  0  0  0  0  0  0  0  0  0  0
    2.6034    0.2945    2.1453 H   0  0  0  0  0  0  0  0  0  0  0  0
    2.6211    1.7290    1.1457 H   0  0  0  0  0  0  0  0  0  0  0  0
    4.9040    1.1435    0.3166 H   0  0  0  0  0  0  0  0  0  0  0  0
    4.8690   -0.3440    1.3027 H   0  0  0  0  0  0  0  0  0  0  0  0
    6.7496    1.8798    1.3858 H   0  0  0  0  0  0  0  0  0  0  0  0
    6.7633    0.4254    2.4183 H   0  0  0  0  0  0  0  0  0  0  0  0
    6.4843    1.8848    4.4316 H   0  0  0  0  0  0  0  0  0  0  0  0
    6.4863    3.3087    3.4062 H   0  0  0  0  0  0  0  0  0  0  0  0
    8.7756    2.7027    2.5556 H   0  0  0  0  0  0  0  0  0  0  0  0
    8.7737    1.2670    3.5813 H   0  0  0  0  0  0  0  0  0  0  0  0
    8.5370    2.7143    5.6076 H   0  0  0  0  0  0  0  0  0  0  0  0
    8.5430    4.1517    4.5800 H   0  0  0  0  0  0  0  0  0  0  0  0
   10.8096    3.5271    3.7193 H   0  0  0  0  0  0  0  0  0  0  0  0
   10.8033    2.0885    4.7431 H   0  0  0  0  0  0  0  0  0  0  0  0
   10.5691    3.5330    6.7728 H   0  0  0  0  0  0  0  0  0  0  0  0
   10.5748    4.9724    5.7495 H   0  0  0  0  0  0  0  0  0  0  0  0
   12.8420    4.3531    4.8900 H   0  0  0  0  0  0  0  0  0  0  0  0
   12.8364    2.9126    5.9117 H   0  0  0  0  0  0  0  0  0  0  0  0
   12.5957    4.3550    7.9435 H   0  0  0  0  0  0  0  0  0  0  0  0
   12.6024    5.7951    6.9216 H   0  0  0  0  0  0  0  0  0  0  0  0
   14.8706    5.1759    6.0637 H   0  0  0  0  0  0  0  0  0  0  0  0
   14.8639    3.7355    7.0856 H   0  0  0  0  0  0  0  0  0  0  0  0
   14.6235    5.1770    9.1171 H   0  0  0  0  0  0  0  0  0  0  0  0
   14.6282    6.6178    8.0957 H   0  0  0  0  0  0  0  0  0  0  0  0
   16.8964    6.0001    7.2356 H   0  0  0  0  0  0  0  0  0  0  0  0
   16.8918    4.5604    8.2585 H   0  0  0  0  0  0  0  0  0  0  0  0
   16.6513    6.0029   10.2890 H   0  0  0  0  0  0  0  0  0  0  0  0
   16.6539    7.4431    9.2668 H   0  0  0  0  0  0  0  0  0  0  0  0
   18.9220    6.8294    8.4062 H   0  0  0  0  0  0  0  0  0  0  0  0
   18.9198    5.3881    9.4268 H   0  0  0  0  0  0  0  0  0  0  0  0
   18.6791    6.8270   11.4598 H   0  0  0  0  0  0  0  0  0  0  0  0
   18.6795    8.2689   10.4401 H   0  0  0  0  0  0  0  0  0  0  0  0
   20.9477    7.6588    9.5769 H   0  0  0  0  0  0  0  0  0  0  0  0
   20.9475    6.2157   10.5949 H   0  0  0  0  0  0  0  0  0  0  0  0
   20.7050    7.6525   12.6305 H   0  0  0  0  0  0  0  0  0  0  0  0
   20.7071    9.0952   11.6119 H   0  0  0  0  0  0  0  0  0  0  0  0
   22.9756    8.4813   10.7488 H   0  0  0  0  0  0  0  0  0  0  0  0
   22.9730    7.0397   11.7691 H   0  0  0  0  0  0  0  0  0  0  0  0
   22.7305    8.4800   13.8023 H   0  0  0  0  0  0  0  0  0  0  0  0
   22.7350    9.9211   12.7813 H   0  0  0  0  0  0  0  0  0  0  0  0
   25.0032    9.3046   11.9212 H   0  0  0  0  0  0  0  0  0  0  0  0
   24.9988    7.8636   12.9423 H   0  0  0  0  0  0  0  0  0  0  0  0
   24.7581    9.3037   14.9746 H   0  0  0  0  0  0  0  0  0  0  0  0
   24.7607   10.7451   13.9542 H   0  0  0  0  0  0  0  0  0  0  0  0
   27.0289   10.1310   13.0924 H   0  0  0  0  0  0  0  0  0  0  0  0
   27.0264    8.6896   14.1129 H   0  0  0  0  0  0  0  0  0  0  0  0
   26.7849   10.1294   16.1459 H   0  0  0  0  0  0  0  0  0  0  0  0
   26.7872   11.5708   15.1255 H   0  0  0  0  0  0  0  0  0  0  0  0
   29.0555   10.9570   14.2636 H   0  0  0  0  0  0  0  0  0  0  0  0
   29.0531    9.5156   15.2840 H   0  0  0  0  0  0  0  0  0  0  0  0
   28.8115   10.9550   17.3171 H   0  0  0  0  0  0  0  0  0  0  0  0
   28.8139   12.3966   16.2969 H   0  0  0  0  0  0  0  0  0  0  0  0
   31.0821   11.7839   15.4354 H   0  0  0  0  0  0  0  0  0  0  0  0
   31.0798   10.3412   16.4540 H   0  0  0  0  0  0  0  0  0  0  0  0
   30.8382   11.7782   18.4889 H   0  0  0  0  0  0  0  0  0  0  0  0
   30.8405   13.2210   17.4705 H   0  0  0  0  0  0  0  0  0  0  0  0
   33.1088   12.6084   16.6078 H   0  0  0  0  0  0  0  0  0  0  0  0
   33.1064   11.1655   17.6261 H   0  0  0  0  0  0  0  0  0  0  0  0
   32.8649   12.6021   19.6614 H   0  0  0  0  0  0  0  0  0  0  0  0
   32.8672   14.0451   18.6430 H   0  0  0  0  0  0  0  0  0  0  0  0
   35.1353   13.4326   17.7801 H   0  0  0  0  0  0  0  0  0  0  0  0
   35.1332   11.9897   18.7984 H   0  0  0  0  0  0  0  0  0  0  0  0
   34.8927   13.4254   20.8337 H   0  0  0  0  0  0  0  0  0  0  0  0
   34.8928   14.8689   19.8162 H   0  0  0  0  0  0  0  0  0  0  0  0
   37.1608   14.2604   18.9518 H   0  0  0  0  0  0  0  0  0  0  0  0
   37.1610   12.8157   19.9676 H   0  0  0  0  0  0  0  0  0  0  0  0
   36.9204   14.2476   22.0055 H   0  0  0  0  0  0  0  0  0  0  0  0
   36.9184   15.6929   20.9906 H   0  0  0  0  0  0  0  0  0  0  0  0
   39.1866   15.0883   20.1236 H   0  0  0  0  0  0  0  0  0  0  0  0
   39.1886   13.6416   21.1367 H   0  0  0  0  0  0  0  0  0  0  0  0
   38.9461   15.0710   23.1774 H   0  0  0  0  0  0  0  0  0  0  0  0
   38.9459   16.5173   22.1639 H   0  0  0  0  0  0  0  0  0  0  0  0
   41.2142   15.9114   21.2977 H   0  0  0  0  0  0  0  0  0  0  0  0
   41.2143   14.4638   22.3095 H   0  0  0  0  0  0  0  0  0  0  0  0
   40.9727   15.8908   24.3514 H   0  0  0  0  0  0  0  0  0  0  0  0
   40.9727   17.3385   23.3398 H   0  0  0  0  0  0  0  0  0  0  0  0
   43.2409   16.7325   22.4725 H   0  0  0  0  0  0  0  0  0  0  0  0
   43.2409   15.2847   23.4838 H   0  0  0  0  0  0  0  0  0  0  0  0
   42.9994   16.7112   25.5262 H   0  0  0  0  0  0  0  0  0  0  0  0
   42.9993   18.1591   24.5149 H   0  0  0  0  0  0  0  0  0  0  0  0
   45.2675   17.5530   23.6472 H   0  0  0  0  0  0  0  0  0  0  0  0
   45.2676   16.1053   24.6589 H   0  0  0  0  0  0  0  0  0  0  0  0
   45.0261   17.5324   26.7009 H   0  0  0  0  0  0  0  0  0  0  0  0
   45.0259   18.9800   25.6892 H   0  0  0  0  0  0  0  0  0  0  0  0
   47.2942   18.3729   24.8213 H   0  0  0  0  0  0  0  0  0  0  0  0
   47.2943   16.9265   25.8346 H   0  0  0  0  0  0  0  0  0  0  0  0
   47.0537   18.3551   27.8750 H   0  0  0  0  0  0  0  0  0  0  0  0
   47.0516   19.8020   26.8623 H   0  0  0  0  0  0  0  0  0  0  0  0
   49.3196   19.1988   25.9942 H   0  0  0  0  0  0  0  0  0  0  0  0
   49.3222   17.7508   27.0053 H   0  0  0  0  0  0  0  0  0  0  0  0
   49.0817   19.1758   29.0481 H   0  0  0  0  0  0  0  0  0  0  0  0
   49.0771   20.6243   28.0377 H   0  0  0  0  0  0  0  0  0  0  0  0
   51.3451   20.0241   27.1665 H   0  0  0  0  0  0  0  0  0  0  0  0
   51.3500   18.5754   28.1765 H   0  0  0  0  0  0  0  0  0  0  0  0
   51.1094   19.9988   30.2205 H   0  0  0  0  0  0  0  0  0  0  0  0
   51.1026   21.4480   29.2112 H   0  0  0  0  0  0  0  0  0  0  0  0
   53.3706   20.8518   28.3382 H   0  0  0  0  0  0  0  0  0  0  0  0
   53.3779   19.4014   29.3459 H   0  0  0  0  0  0  0  0  0  0  0  0
   53.1373   20.8212   31.3924 H   0  0  0  0  0  0  0  0  0  0  0  0
   53.1281   22.2720   30.3854 H   0  0  0  0  0  0  0  0  0  0  0  0
   55.3962   21.6773   29.5088 H   0  0  0  0  0  0  0  0  0  0  0  0
   55.4055   20.2277   30.5175 H   0  0  0  0  0  0  0  0  0  0  0  0
   55.1641   21.6498   32.5631 H   0  0  0  0  0  0  0  0  0  0  0  0
   55.1546   23.0993   31.5542 H   0  0  0  0  0  0  0  0  0  0  0  0
   57.4229   22.5037   30.6783 H   0  0  0  0  0  0  0  0  0  0  0  0
   57.4323   21.0554   31.6889 H   0  0  0  0  0  0  0  0  0  0  0  0
   57.1907   22.4801   33.7327 H   0  0  0  0  0  0  0  0  0  0  0  0
   57.1813   23.9283   32.7219 H   0  0  0  0  0  0  0  0  0  0  0  0
   59.4495   23.3325   31.8473 H   0  0  0  0  0  0  0  0  0  0  0  0
   59.4589   21.8845   32.8583 H   0  0  0  0  0  0  0  0  0  0  0  0
   59.2174   23.3096   34.9014 H   0  0  0  0  0  0  0  0  0  0  0  0
   59.2078   24.7575   33.8905 H   0  0  0  0  0  0  0  0  0  0  0  0
   61.4754   24.1619   33.0159 H   0  0  0  0  0  0  0  0  0  0  0  0
   61.4850   22.7116   34.0260 H   0  0  0  0  0  0  0  0  0  0  0  0
   61.2447   24.1368   36.0706 H   0  0  0  0  0  0  0  0  0  0  0  0
   61.2330   25.5883   35.0613 H   0  0  0  0  0  0  0  0  0  0  0  0
   63.5013   24.9926   34.1848 H   0  0  0  0  0  0  0  0  0  0  0  0
   63.5131   23.5440   35.1957 H   0  0  0  0  0  0  0  0  0  0  0  0
   63.2713   24.9685   37.2396 H   0  0  0  0  0  0  0  0  0  0  0  0
   63.2612   26.4171   36.2288 H   0  0  0  0  0  0  0  0  0  0  0  0
   65.5291   25.8222   35.3533 H   0  0  0  0  0  0  0  0  0  0  0  0
   65.5384   24.3738   36.3642 H   0  0  0  0  0  0  0  0  0  0  0  0
   65.2986   25.7972   38.4089 H   0  0  0  0  0  0  0  0  0  0  0  0
   65.2883   27.2461   37.3981 H   0  0  0  0  0  0  0  0  0  0  0  0
   67.5565   26.6526   36.5224 H   0  0  0  0  0  0  0  0  0  0  0  0
   67.5659   25.2018   37.5287 H   0  0  0  0  0  0  0  0  0  0  0  0
   67.3270   26.6200   39.5763 H   0  0  0  0  0  0  0  0  0  0  0  0
   67.3162   28.0716   38.5707 H   0  0  0  0  0  0  0  0  0  0  0  0
   69.5850   27.4783   37.6926 H   0  0  0  0  0  0  0  0  0  0  0  0
   69.5943   26.0280   38.7006 H   0  0  0  0  0  0  0  0  0  0  0  0
   69.3536   27.4488   40.7472 H   0  0  0  0  0  0  0  0  0  0  0  0
   69.3446   28.8988   39.7396 H   0  0  0  0  0  0  0  0  0  0  0  0
   71.6142   28.3054   38.8655 H   0  0  0  0  0  0  0  0  0  0  0  0
   71.6244   26.8575   39.8744 H   0  0  0  0  0  0  0  0  0  0  0  0
   71.3857   28.2796   41.9202 H   0  0  0  0  0  0  0  0  0  0  0  0
   71.3741   29.7290   40.9124 H   0  0  0  0  0  0  0  0  0  0  0  0
   73.6440   29.1362   40.0384 H   0  0  0  0  0  0  0  0  0  0  0  0
   73.6546   27.6875   41.0475 H   0  0  0  0  0  0  0  0  0  0  0  0
   73.4139   29.1121   43.0931 H   0  0  0  0  0  0  0  0  0  0  0  0
   73.4045   30.5606   42.0826 H   0  0  0  0  0  0  0  0  0  0  0  0
   75.6770   29.9684   41.2140 H   0  0  0  0  0  0  0  0  0  0  0  0
   75.6863   28.5210   42.2246 H   0  0  0  0  0  0  0  0  0  0  0  0
   75.4506   29.9482   44.2700 H   0  0  0  0  0  0  0  0  0  0  0  0
   75.4432   31.3955   43.2584 H   0  0  0  0  0  0  0  0  0  0  0  0
   77.7159   30.7987   42.3895 H   0  0  0  0  0  0  0  0  0  0  0  0
   77.7230   29.3528   43.4026 H   0  0  0  0  0  0  0  0  0  0  0  0
   77.5141   30.7858   45.4486 H   0  0  0  0  0  0  0  0  0  0  0  0
   77.5072   32.2309   44.4359 H   0  0  0  0  0  0  0  0  0  0  0  0
   79.7919   30.1941   44.5978 H   0  0  0  0  0  0  0  0  0  0  0  0
   79.7714   31.8019   45.3454 H   0  0  0  0  0  0  0  0  0  0  0  0
   79.7849   31.6480   43.5789 H   0  0  0  0  0  0  0  0  0  0  0  0
  1  2  1  0  0  0  0
  1 80  1  0  0  0  0
  1 81  1  0  0  0  0
  1 82  1  0  0  0  0
  2  3  1  0  0  0  0
  2  4  1  0  0  0  0
  2 83  1  0  0  0  0
  3 84  1  0  0  0  0
  3 85  1  0  0  0  0
  3 86  1  0  0  0  0
  4  5  1  0  0  0  0
  4 87  1  0  0  0  0
  4 88  1  0  0  0  0
  5  6  1  0  0  0  0
  5 89  1  0  0  0  0
  5 90  1  0  0  0  0
  6  7  1  0  0  0  0
  7  8  1  0  0  0  0
  7 91  1  0  0  0  0
  7 92  1  0  0  0  0
  8  9  1  0  0  0  0
  8 93  1  0  0  0  0
  8 94  1  0  0  0  0
  9 10  1  0  0  0  0
  9 95  1  0  0  0  0
  9 96  1  0  0  0  0
 10 11  1  0  0  0  0
 10 97  1  0  0  0  0
 10 98  1  0  0  0  0
 11 12  1  0  0  0  0
 11 99  1  0  0  0  0
 11100  1  0  0  0  0
 12 13  1  0  0  0  0
 12101  1  0  0  0  0
 12102  1  0  0  0  0
 13 14  1  0  0  0  0
 13103  1  0  0  0  0
 13104  1  0  0  0  0
 14 15  1  0  0  0  0
 14105  1  0  0  0  0
 14106  1  0  0  0  0
 15 16  1  0  0  0  0
 15107  1  0  0  0  0
 15108  1  0  0  0  0
 16 17  1  0  0  0  0
 16109  1  0  0  0  0
 16110  1  0  0  0  0
 17 18  1  0  0  0  0
 17111  1  0  0  0  0
 17112  1  0  0  0  0
 18 19  1  0  0  0  0
 18113  1  0  0  0  0
 18114  1  0  0  0  0
 19 20  1  0  0  0  0
 19115  1  0  0  0  0
 19116  1  0  0  0  0
 20 21  1  0  0  0  0
 20117  1  0  0  0  0
 20118  1  0  0  0  0
 21 22  1  0  0  0  0
 21119  1  0  0  0  0
 21120  1  0  0  0  0
 22 23  1  0  0  0  0
 22121  1  0  0  0  0
 22122  1  0  0  0  0
 23 24  1  0  0  0  0
 23123  1  0  0  0  0
 23124  1  0  0  0  0
 24 25  1  0  0  0  0
 24125  1  0  0  0  0
 24126  1  0  0  0  0
 25 26  1  0  0  0  0
 25127  1  0  0  0  0
 25128  1  0  0  0  0
 26 27  1  0  0  0  0
 26129  1  0  0  0  0
 26130  1  0  0  0  0
 27 28  1  0  0  0  0
 27131  1  0  0  0  0
 27132  1  0  0  0  0
 28 29  1  0  0  0  0
 28133  1  0  0  0  0
 28134  1  0  0  0  0
 29 30  1  0  0  0  0
 29135  1  0  0  0  0
 29136  1  0  0  0  0
 30 31  1  0  0  0  0
 30137  1  0  0  0  0
 30138  1  0  0  0  0
 31 32  1  0  0  0  0
 31139  1  0  0  0  0
 31140  1  0  0  0  0
 32 33  1  0  0  0  0
 32141  1  0  0  0  0
 32142  1  0  0  0  0
 33 34  1  0  0  0  0
 33143  1  0  0  0  0
 33144  1  0  0  0  0
 34 35  1  0  0  0  0
 34145  1  0  0  0  0
 34146  1  0  0  0  0
 35 36  1  0  0  0  0
 35147  1  0  0  0  0
 35148  1  0  0  0  0
 36 37  1  0  0  0  0
 36149  1  0  0  0  0
 36150  1  0  0  0  0
 37 38  1  0  0  0  0
 37151  1  0  0  0  0
 37152  1  0  0  0  0
 38 39  1  0  0  0  0
 38153  1  0  0  0  0
 38154  1  0  0  0  0
 39 40  1  0  0  0  0
 39155  1  0  0  0  0
 39156  1  0  0  0  0
 40 41  1  0  0  0  0
 40157  1  0  0  0  0
 40158  1  0  0  0  0
 41 42  1  0  0  0  0
 41159  1  0  0  0  0
 41160  1  0  0  0  0
 42 43  1  0  0  0  0
 42161  1  0  0  0  0
 42162  1  0  0  0  0
 43 44  1  0  0  0  0
 43163  1  0  0  0  0
 43164  1  0  0  0  0
 44 45  1  0  0  0  0
 44165  1  0  0  0  0
 44166  1  0  0  0  0
 45 46  1  0  0  0  0
 45167  1  0  0  0  0
 45168  1  0  0  0  0
 46 47  1  0  0  0  0
 46169  1  0  0  0  0
 46170  1  0  0  0  0
 47 48  1  0  0  0  0
 47171  1  0  0  0  0
 47172  1  0  0  0  0
 48 49  1  0  0  0  0
 48173  1  0  0  0  0
 48174  1  0  0  0  0
 49 50  1  0  0  0  0
 49175  1  0  0  0  0
 49176  1  0  0  0  0
 50 51  1  0  0  0  0
 50177  1  0  0  0  0
 50178  1  0  0  0  0
 51 52  1  0  0  0  0
 51179  1  0  0  0  0
 51180  1  0  0  0  0
 52 53  1  0  0  0  0
 52181  1  0  0  0  0
 52182  1  0  0  0  0
 53 54  1  0  0  0  0
 53183  1  0  0  0  0
 53184  1  0  0  0  0
 54 55  1  0  0  0  0
 54185  1  0  0  0  0
 54186  1  0  0  0  0
 55 56  1  0  0  0  0
 55187  1  0  0  0  0
 55188  1  0  0  0  0
 56 57  1  0  0  0  0
 56189  1  0  0  0  0
 56190  1  0  0  0  0
 57 58  1  0  0  0  0
 57191  1  0  0  0  0
 57192  1  0  0  0  0
 58 59  1  0  0  0  0
 58193  1  0  0  0  0
 58194  1  0  0  0  0
 59 60  1  0  0  0  0
 59195  1  0  0  0  0
 59196  1  0  0  0  0
 60 61  1  0  0  0  0
 60197  1  0  0  0  0
 60198  1  0  0  0  0
 61 62  1  0  0  0  0
 61199  1  0  0  0  0
 61200  1  0  0  0  0
 62 63  1  0  0  0  0
 62201  1  0  0  0  0
 62202  1  0  0  0  0
 63 64  1  0  0  0  0
 63203  1  0  0  0  0
 63204  1  0  0  0  0
 64 65  1  0  0  0  0
 64205  1  0  0  0  0
 64206  1  0  0  0  0
 65 66  1  0  0  0  0
 65207  1  0  0  0  0
 65208  1  0  0  0  0
 66 67  1  0  0  0  0
 66209  1  0  0  0  0
 66210  1  0  0  0  0
 67 68  1  0  0  0  0
 67211  1  0  0  0  0
 67212  1  0  0  0  0
 68 69  1  0  0  0  0
 68213  1  0  0  0  0
 68214  1  0  0  0  0
 69 70  1  0  0  0  0
 69215  1  0  0  0  0
 69216  1  0  0  0  0
 70 71  1  0  0  0  0
 70217  1  0  0  0  0
 70218  1  0  0  0  0
 71 72  1  0  0  0  0
 71219  1  0  0  0  0
 71220  1  0  0  0  0
 72 73  1  0  0  0  0
 72221  1  0  0  0  0
 72222  1  0  0  0  0
 73 74  1  0  0  0  0
 73223  1  0  0  0  0
 73224  1  0  0  0  0
 74 75  1  0  0  0  0
 74225  1  0  0  0  0
 74226  1  0  0  0  0
 75 76  1  0  0  0  0
 75227  1  0  0  0  0
 75228  1  0  0  0  0
 76 77  1  0  0  0  0
 76229  1  0  0  0  0
 76230  1  0  0  0  0
 77 78  1  0  0  0  0
 77231  1  0  0  0  0
 77232  1  0  0  0  0
 78 79  1  0  0  0  0
 78233  1  0  0  0  0
 78234  1  0  0  0  0
 79235  1  0  0  0  0
 79236  1  0  0  0  0
 79237  1  0  0  0  0
M  END
$$$$
