
 OpenBabel04232216473D

 45 46  0  0  1  0  0  0  0  0999 V2000
    3.8727   -5.3713    1.2821 C   0  0  0  0  0  0  0  0  0  0  0  0
    4.2674   -5.5923   -0.1722 C   0  0  0  0  0  0  0  0  0  0  0  0
    3.1939   -5.7118   -0.9798 C   0  0  0  0  0  0  0  0  0  0  0  0
    2.5296   -4.4180   -1.4194 C   0  0  0  0  0  0  0  0  0  0  0  0
    2.9960   -3.8618   -2.5644 C   0  0  0  0  0  0  0  0  0  0  0  0
    2.8221   -4.7983   -3.7692 C   0  0  0  0  0  0  0  0  0  0  0  0
    4.3205   -3.1780   -2.3106 C   0  0  0  0  0  0  0  0  0  0  0  0
    4.4009   -2.1282   -1.1951 C   0  0  0  0  0  0  0  0  0  0  0  0
    5.6738   -1.3095   -0.8690 C   0  0  0  0  0  0  0  0  0  0  0  0
    6.0684   -0.1793   -1.8146 C   0  0  0  0  0  0  0  0  0  0  0  0
    5.0753    0.9703   -1.8293 C   0  0  0  0  0  0  0  0  0  0  0  0
    5.3076   -4.0510   -2.5997 C   0  0  0  0  0  0  0  0  0  0  0  0
    6.3398   -4.5772   -1.6468 C   0  0  3  0  0  0  0  0  0  0  0  0
    7.3157   -5.0348   -2.6544 N   0  0  0  0  0  0  0  0  0  0  0  0
    8.5161   -5.0076   -2.3526 N   0  0  0  0  0  0  0  0  0  0  0  0
    9.2093   -5.9501   -3.1535 N   0  0  0  0  0  0  0  0  0  0  0  0
    8.9276   -7.1794   -2.9794 N   0  0  0  0  0  0  0  0  0  0  0  0
    7.7241   -7.4349   -2.2837 N   0  0  0  0  0  0  0  0  0  0  0  0
    7.7815   -7.1995   -1.0017 C   0  0  0  0  0  0  0  0  0  0  0  0
    9.1172   -7.1508   -0.2638 C   0  0  0  0  0  0  0  0  0  0  0  0
    6.4801   -6.8248   -0.3097 C   0  0  0  0  0  0  0  0  0  0  0  0
    5.7370   -5.7289   -0.6735 C   0  0  0  0  0  0  0  0  0  0  0  0
    3.4085   -4.3757    1.3816 H   0  0  0  0  0  0  0  0  0  0  0  0
    4.6718   -5.4254    2.0205 H   0  0  0  0  0  0  0  0  0  0  0  0
    3.0797   -6.0729    1.5945 H   0  0  0  0  0  0  0  0  0  0  0  0
    2.2897   -6.1881   -0.5367 H   0  0  0  0  0  0  0  0  0  0  0  0
    2.3982   -3.7570   -0.5568 H   0  0  0  0  0  0  0  0  0  0  0  0
    1.7553   -4.9272   -3.9836 H   0  0  0  0  0  0  0  0  0  0  0  0
    3.2147   -5.8123   -3.5804 H   0  0  0  0  0  0  0  0  0  0  0  0
    3.3090   -4.4353   -4.6749 H   0  0  0  0  0  0  0  0  0  0  0  0
    4.1872   -2.6494   -0.2540 H   0  0  0  0  0  0  0  0  0  0  0  0
    3.5708   -1.4341   -1.3519 H   0  0  0  0  0  0  0  0  0  0  0  0
    6.5494   -1.9494   -0.7503 H   0  0  0  0  0  0  0  0  0  0  0  0
    5.5204   -0.8704    0.1252 H   0  0  0  0  0  0  0  0  0  0  0  0
    6.2320   -0.5606   -2.8263 H   0  0  0  0  0  0  0  0  0  0  0  0
    7.0314    0.2238   -1.4692 H   0  0  0  0  0  0  0  0  0  0  0  0
    4.0909    0.6459   -2.1742 H   0  0  0  0  0  0  0  0  0  0  0  0
    5.4274    1.7591   -2.5016 H   0  0  0  0  0  0  0  0  0  0  0  0
    4.9670    1.4090   -0.8311 H   0  0  0  0  0  0  0  0  0  0  0  0
    5.1769   -4.7913   -3.3900 H   0  0  0  0  0  0  0  0  0  0  0  0
    6.7877   -3.8312   -0.9971 H   0  0  0  0  0  0  0  0  0  0  0  0
    9.5095   -6.1268   -0.2521 H   0  0  0  0  0  0  0  0  0  0  0  0
    9.8483   -7.7726   -0.7916 H   0  0  0  0  0  0  0  0  0  0  0  0
    9.0366   -7.5244    0.7525 H   0  0  0  0  0  0  0  0  0  0  0  0
    6.1182   -7.5742    0.3859 H   0  0  0  0  0  0  0  0  0  0  0  0
  1  2  1  0  0  0  0
  1 23  1  0  0  0  0
  1 24  1  0  0  0  0
  1 25  1  0  0  0  0
  2  3  2  0  0  0  0
  2 22  1  0  0  0  0
  3  4  1  0  0  0  0
  3 26  1  0  0  0  0
  4  5  2  0  0  0  0
  4 27  1  0  0  0  0
  5  6  1  0  0  0  0
  5  7  1  0  0  0  0
  6 28  1  0  0  0  0
  6 29  1  0  0  0  0
  6 30  1  0  0  0  0
  7  8  1  0  0  0  0
  7 12  2  0  0  0  0
  8  9  1  0  0  0  0
  8 31  1  0  0  0  0
  8 32  1  0  0  0  0
  9 10  1  0  0  0  0
  9 33  1  0  0  0  0
  9 34  1  0  0  0  0
 10 11  1  0  0  0  0
 10 35  1  0  0  0  0
 10 36  1  0  0  0  0
 11 37  1  0  0  0  0
 11 38  1  0  0  0  0
 11 39  1  0  0  0  0
 12 13  1  0  0  0  0
 12 40  1  0  0  0  0
 13 14  1  0  0  0  0
 13 22  1  0  0  0  0
 13 41  1  0  0  0  0
 14 15  2  3  0  0  0
 15 16  1  0  0  0  0
 16 17  2  3  0  0  0
 17 18  1  0  0  0  0
 18 19  2  3  0  0  0
 19 20  1  0  0  0  0
 19 21  1  0  0  0  0
 20 42  1  0  0  0  0
 20 43  1  0  0  0  0
 20 44  1  0  0  0  0
 21 22  2  3  0  0  0
 21 45  1  0  0  0  0
M  END
$$$$
