
 OpenBabel04232216393D

 44 47  0  0  0  0  0  0  0  0999 V2000
    1.0878   -0.0477   -0.0047 C   0  0  0  0  0  0  0  0  0  0  0  0
    2.3916   -0.0477   -0.0047 C   0  0  0  0  0  0  0  0  0  0  0  0
    3.9116   -0.0477   -0.0047 C   0  0  0  0  0  0  0  0  0  0  0  0
    4.5730    0.4933   -1.0620 C   0  0  0  0  0  0  0  0  0  0  0  0
    6.0113    0.2107   -1.2154 C   0  0  0  0  0  0  0  0  0  0  0  0
    6.7749    0.8082   -0.0433 C   0  0  0  0  0  0  0  0  0  0  0  0
    6.5222   -0.6875   -2.1171 C   0  0  0  0  0  0  0  0  0  0  0  0
    5.4274   -1.5054   -3.1187 C   0  0  0  0  0  0  0  0  0  0  0  0
    3.8224   -1.8976   -2.7635 C   0  0  0  0  0  0  0  0  0  0  0  0
    3.2037   -3.2536   -3.2473 C   0  0  0  0  0  0  0  0  0  0  0  0
    1.8807   -3.7706   -3.3999 N   0  0  0  0  0  0  0  0  0  0  0  0
    2.3557   -4.9291   -3.7239 C   0  0  0  0  0  0  0  0  0  0  0  0
    3.6899   -4.4786   -3.4864 C   0  0  0  0  0  0  0  0  0  0  0  0
    5.0396   -5.0540   -3.3776 C   0  0  0  0  0  0  0  0  0  0  0  0
    5.8541   -4.3965   -2.4562 N   0  0  0  0  0  0  0  0  0  0  0  0
    5.8668   -3.5493   -1.4234 C   0  0  0  0  0  0  0  0  0  0  0  0
    7.1268   -3.3771   -0.9022 N   0  0  0  0  0  0  0  0  0  0  0  0
    6.5825   -3.5452    0.2943 C   0  0  0  0  0  0  0  0  0  0  0  0
    5.3447   -2.6679   -0.2785 C   0  0  0  0  0  0  0  0  0  0  0  0
    4.7199   -1.5293    0.3511 N   0  0  0  0  0  0  0  0  0  0  0  0
    8.1385   -1.0595   -1.9915 C   0  0  0  0  0  0  0  0  0  0  0  0
    8.8640   -1.1327   -0.7439 C   0  0  0  0  0  0  0  0  0  0  0  0
   10.2531   -1.3695   -0.5867 C   0  0  0  0  0  0  0  0  0  0  0  0
   11.0375   -1.6457   -1.6838 C   0  0  0  0  0  0  0  0  0  0  0  0
   10.4106   -1.6135   -2.9256 C   0  0  0  0  0  0  0  0  0  0  0  0
    9.0001   -1.2959   -3.0783 C   0  0  0  0  0  0  0  0  0  0  0  0
    0.0229   -0.0559   -0.0074 H   0  0  0  0  0  0  0  0  0  0  0  0
    4.0107    0.8052   -1.9370 H   0  0  0  0  0  0  0  0  0  0  0  0
    6.1928    1.5410    0.5228 H   0  0  0  0  0  0  0  0  0  0  0  0
    7.7016    1.2915   -0.3589 H   0  0  0  0  0  0  0  0  0  0  0  0
    6.9700    0.0358    0.7084 H   0  0  0  0  0  0  0  0  0  0  0  0
    5.8990   -2.4533   -3.2803 H   0  0  0  0  0  0  0  0  0  0  0  0
    5.4843   -1.1624   -4.1555 H   0  0  0  0  0  0  0  0  0  0  0  0
    3.0949   -1.0979   -2.9310 H   0  0  0  0  0  0  0  0  0  0  0  0
    3.7042   -2.0742   -1.6918 H   0  0  0  0  0  0  0  0  0  0  0  0
    2.0412   -5.9272   -4.0112 H   0  0  0  0  0  0  0  0  0  0  0  0
    5.0126   -6.1690   -3.2907 H   0  0  0  0  0  0  0  0  0  0  0  0
    5.4369   -4.9360   -4.4433 H   0  0  0  0  0  0  0  0  0  0  0  0
    6.7769   -4.6168    0.4639 H   0  0  0  0  0  0  0  0  0  0  0  0
    8.3532   -1.0815    0.2183 H   0  0  0  0  0  0  0  0  0  0  0  0
   10.7153   -1.3159    0.3994 H   0  0  0  0  0  0  0  0  0  0  0  0
   12.1031   -1.8436   -1.5826 H   0  0  0  0  0  0  0  0  0  0  0  0
   11.0329   -1.7937   -3.8024 H   0  0  0  0  0  0  0  0  0  0  0  0
    8.6609   -1.2036   -4.0953 H   0  0  0  0  0  0  0  0  0  0  0  0
  1  2  3  0  0  0  0
  1 27  1  0  0  0  0
  2  3  1  0  0  0  0
  3  4  2  3  0  0  0
  3 20  1  0  0  0  0
  4  5  1  0  0  0  0
  4 28  1  0  0  0  0
  5  6  1  0  0  0  0
  5  7  2  3  0  0  0
  6 29  1  0  0  0  0
  6 30  1  0  0  0  0
  6 31  1  0  0  0  0
  7  8  1  0  0  0  0
  7 21  1  0  0  0  0
  8  9  1  0  0  0  0
  8 32  1  0  0  0  0
  8 33  1  0  0  0  0
  9 10  1  0  0  0  0
  9 34  1  0  0  0  0
  9 35  1  0  0  0  0
 10 11  1  0  0  0  0
 10 13  2  0  0  0  0
 11 12  2  0  0  0  0
 12 13  1  0  0  0  0
 12 36  1  0  0  0  0
 13 14  1  0  0  0  0
 14 15  1  0  0  0  0
 14 37  1  0  0  0  0
 14 38  1  0  0  0  0
 15 16  2  3  0  0  0
 16 17  1  0  0  0  0
 16 19  1  0  0  0  0
 17 18  2  0  0  0  0
 18 19  1  0  0  0  0
 18 39  1  0  0  0  0
 19 20  2  3  0  0  0
 21 22  1  0  0  0  0
 21 26  2  0  0  0  0
 22 23  2  0  0  0  0
 22 40  1  0  0  0  0
 23 24  1  0  0  0  0
 23 41  1  0  0  0  0
 24 25  2  0  0  0  0
 24 42  1  0  0  0  0
 25 26  1  0  0  0  0
 25 43  1  0  0  0  0
 26 44  1  0  0  0  0
M  END
$$$$
