
 OpenBabel04232216543D

103102  0  0  0  0  0  0  0  0999 V2000
   25.3752  -10.4349    6.6710 C   0  0  0  0  0  0  0  0  0  0  0  0
   24.8139  -10.3313    5.2641 C   0  0  0  0  0  0  0  0  0  0  0  0
   23.2921  -10.4086    5.2799 C   0  0  0  0  0  0  0  0  0  0  0  0
   22.7267  -10.3126    3.8703 C   0  0  0  0  0  0  0  0  0  0  0  0
   21.2092  -10.3925    3.9073 C   0  0  0  0  0  0  0  0  0  0  0  0
   20.7111  -10.2712    2.5443 N   0  0  0  0  0  0  0  0  0  0  0  0
   19.2799  -10.3735    2.5844 N   0  0  0  0  0  0  0  0  0  0  0  0
   18.7599  -10.2416    1.2662 N   0  0  0  0  0  0  0  0  0  0  0  0
   17.3153  -10.3401    1.2548 N   0  0  0  0  0  0  0  0  0  0  0  0
   16.8045  -10.2565   -0.0619 N   0  0  0  0  0  0  0  0  0  0  0  0
   17.2914  -11.2902   -0.9004 N   0  0  0  0  0  0  0  0  0  0  0  0
   16.7420  -11.1531   -2.1901 N   0  0  0  0  0  0  0  0  0  0  0  0
   17.2385  -12.1805   -3.0393 N   0  0  0  0  0  0  0  0  0  0  0  0
   16.6880  -12.0639   -4.3853 N   0  0  0  0  0  0  0  0  0  0  0  0
   17.0248  -10.8080   -5.0450 N   0  0  0  0  0  0  0  0  0  0  0  0
   16.3790  -10.7694   -6.5674 S   0  0  0  0  0  0  0  0  0  0  0  0
   17.0106   -8.9315   -7.2472 S   0  0  0  0  0  0  0  0  0  0  0  0
   19.0815   -8.9364   -7.2746 S   0  0  0  0  0  0  0  0  0  0  0  0
   19.7589  -10.4282   -8.5495 S   0  0  0  0  0  0  0  0  0  0  0  0
   21.8604  -10.4135   -8.5085 S   0  0  0  0  0  0  0  0  0  0  0  0
   22.5585  -11.9539   -9.7634 S   0  0  0  0  0  0  0  0  0  0  0  0
   24.6674  -11.9398   -9.7527 S   0  0  0  0  0  0  0  0  0  0  0  0
   25.3597  -13.4856  -11.0115 S   0  0  0  0  0  0  0  0  0  0  0  0
   27.4694  -13.4761  -11.0037 S   0  0  0  0  0  0  0  0  0  0  0  0
   28.1603  -15.0219  -12.2628 S   0  0  0  0  0  0  0  0  0  0  0  0
   30.2700  -15.0120  -12.2547 S   0  0  0  0  0  0  0  0  0  0  0  0
   30.9609  -16.5575  -13.5135 S   0  0  0  0  0  0  0  0  0  0  0  0
   33.0704  -16.5473  -13.5052 S   0  0  0  0  0  0  0  0  0  0  0  0
   33.7611  -18.0927  -14.7640 S   0  0  0  0  0  0  0  0  0  0  0  0
   35.8706  -18.0825  -14.7557 S   0  0  0  0  0  0  0  0  0  0  0  0
   36.5612  -19.6279  -16.0144 S   0  0  0  0  0  0  0  0  0  0  0  0
   38.6706  -19.6176  -16.0060 S   0  0  0  0  0  0  0  0  0  0  0  0
   39.3612  -21.1630  -17.2648 S   0  0  0  0  0  0  0  0  0  0  0  0
   41.4706  -21.1527  -17.2564 S   0  0  0  0  0  0  0  0  0  0  0  0
   42.1612  -22.6981  -18.5152 S   0  0  0  0  0  0  0  0  0  0  0  0
   44.2706  -22.6878  -18.5068 S   0  0  0  0  0  0  0  0  0  0  0  0
   44.9612  -24.2332  -19.7655 S   0  0  0  0  0  0  0  0  0  0  0  0
   47.0706  -24.2230  -19.7572 S   0  0  0  0  0  0  0  0  0  0  0  0
   47.7612  -25.7683  -21.0159 S   0  0  0  0  0  0  0  0  0  0  0  0
   49.8705  -25.7581  -21.0075 S   0  0  0  0  0  0  0  0  0  0  0  0
   50.5612  -27.3035  -22.2663 S   0  0  0  0  0  0  0  0  0  0  0  0
   52.6705  -27.2932  -22.2579 S   0  0  0  0  0  0  0  0  0  0  0  0
   53.3612  -28.8386  -23.5166 S   0  0  0  0  0  0  0  0  0  0  0  0
   55.4705  -28.8283  -23.5083 S   0  0  0  0  0  0  0  0  0  0  0  0
   56.1612  -30.3737  -24.7670 S   0  0  0  0  0  0  0  0  0  0  0  0
   58.2705  -30.3634  -24.7586 S   0  0  0  0  0  0  0  0  0  0  0  0
   58.9611  -31.9088  -26.0174 S   0  0  0  0  0  0  0  0  0  0  0  0
   61.0705  -31.8985  -26.0090 S   0  0  0  0  0  0  0  0  0  0  0  0
   61.7611  -33.4439  -27.2677 S   0  0  0  0  0  0  0  0  0  0  0  0
   63.8705  -33.4337  -27.2594 S   0  0  0  0  0  0  0  0  0  0  0  0
   64.5611  -34.9791  -28.5181 S   0  0  0  0  0  0  0  0  0  0  0  0
   66.6705  -34.9688  -28.5097 S   0  0  0  0  0  0  0  0  0  0  0  0
   67.3611  -36.5142  -29.7685 S   0  0  0  0  0  0  0  0  0  0  0  0
   69.4705  -36.5039  -29.7601 S   0  0  0  0  0  0  0  0  0  0  0  0
   70.1611  -38.0493  -31.0188 S   0  0  0  0  0  0  0  0  0  0  0  0
   72.2705  -38.0390  -31.0105 S   0  0  0  0  0  0  0  0  0  0  0  0
   72.9611  -39.5844  -32.2692 S   0  0  0  0  0  0  0  0  0  0  0  0
   75.0705  -39.5741  -32.2608 S   0  0  0  0  0  0  0  0  0  0  0  0
   75.7611  -41.1195  -33.5196 S   0  0  0  0  0  0  0  0  0  0  0  0
   77.8705  -41.1093  -33.5112 S   0  0  0  0  0  0  0  0  0  0  0  0
   78.5611  -42.6546  -34.7700 S   0  0  0  0  0  0  0  0  0  0  0  0
   80.6705  -42.6444  -34.7616 S   0  0  0  0  0  0  0  0  0  0  0  0
   81.3611  -44.1898  -36.0203 S   0  0  0  0  0  0  0  0  0  0  0  0
   83.4705  -44.1795  -36.0120 S   0  0  0  0  0  0  0  0  0  0  0  0
   84.1611  -45.7249  -37.2707 S   0  0  0  0  0  0  0  0  0  0  0  0
   86.2704  -45.7146  -37.2623 S   0  0  0  0  0  0  0  0  0  0  0  0
   86.9610  -47.2600  -38.5210 S   0  0  0  0  0  0  0  0  0  0  0  0
   89.0704  -47.2497  -38.5127 S   0  0  0  0  0  0  0  0  0  0  0  0
   89.7609  -48.7950  -39.7713 S   0  0  0  0  0  0  0  0  0  0  0  0
   91.8700  -48.7846  -39.7629 S   0  0  0  0  0  0  0  0  0  0  0  0
   92.5602  -50.3298  -41.0214 S   0  0  0  0  0  0  0  0  0  0  0  0
   94.6686  -50.3190  -41.0126 S   0  0  0  0  0  0  0  0  0  0  0  0
   95.3573  -51.8635  -42.2706 S   0  0  0  0  0  0  0  0  0  0  0  0
   97.4635  -51.8512  -42.2607 S   0  0  0  0  0  0  0  0  0  0  0  0
   98.1489  -53.3937  -43.5170 S   0  0  0  0  0  0  0  0  0  0  0  0
  100.2494  -53.3766  -43.5035 S   0  0  0  0  0  0  0  0  0  0  0  0
  100.9249  -54.9146  -44.7559 S   0  0  0  0  0  0  0  0  0  0  0  0
  103.0105  -54.8995  -44.7181 S   0  0  0  0  0  0  0  0  0  0  0  0
  103.6722  -56.3903  -46.0036 S   0  0  0  0  0  0  0  0  0  0  0  0
  105.7440  -56.3803  -45.9387 S   0  0  0  0  0  0  0  0  0  0  0  0
  106.3268  -54.5588  -46.6922 S   0  0  0  0  0  0  0  0  0  0  0  0
   26.4680  -10.3794    6.6515 H   0  0  0  0  0  0  0  0  0  0  0  0
   25.0919  -11.3950    7.1290 H   0  0  0  0  0  0  0  0  0  0  0  0
   25.0004   -9.6304    7.3044 H   0  0  0  0  0  0  0  0  0  0  0  0
   25.2299  -11.1238    4.6429 H   0  0  0  0  0  0  0  0  0  0  0  0
   25.1298   -9.3697    4.8237 H   0  0  0  0  0  0  0  0  0  0  0  0
   22.8835   -9.6124    5.9058 H   0  0  0  0  0  0  0  0  0  0  0  0
   22.9806  -11.3672    5.7294 H   0  0  0  0  0  0  0  0  0  0  0  0
   23.1331  -11.1069    3.2417 H   0  0  0  0  0  0  0  0  0  0  0  0
   23.0325   -9.3474    3.4208 H   0  0  0  0  0  0  0  0  0  0  0  0
   20.8049   -9.5884    4.5286 H   0  0  0  0  0  0  0  0  0  0  0  0
   20.8972  -11.3502    4.3443 H   0  0  0  0  0  0  0  0  0  0  0  0
   21.0771  -11.0326    1.9744 H   0  0  0  0  0  0  0  0  0  0  0  0
   18.9141   -9.6245    3.1777 H   0  0  0  0  0  0  0  0  0  0  0  0
   19.1334  -11.0003    0.6797 H   0  0  0  0  0  0  0  0  0  0  0  0
   16.8980   -9.6016    1.8419 H   0  0  0  0  0  0  0  0  0  0  0  0
   17.0059   -9.3258   -0.4745 H   0  0  0  0  0  0  0  0  0  0  0  0
   16.9932  -12.2303   -0.5542 H   0  0  0  0  0  0  0  0  0  0  0  0
   16.9907  -10.2517   -2.6018 H   0  0  0  0  0  0  0  0  0  0  0  0
   16.9424  -13.0766   -2.6508 H   0  0  0  0  0  0  0  0  0  0  0  0
   15.6793  -12.1270   -4.2876 H   0  0  0  0  0  0  0  0  0  0  0  0
   18.0430  -10.7547   -5.0932 H   0  0  0  0  0  0  0  0  0  0  0  0
  107.6674  -54.6508  -46.6193 H   0  0  0  0  0  0  0  0  0  0  0  0
  1  2  1  0  0  0  0
  1 82  1  0  0  0  0
  1 83  1  0  0  0  0
  1 84  1  0  0  0  0
  2  3  1  0  0  0  0
  2 85  1  0  0  0  0
  2 86  1  0  0  0  0
  3  4  1  0  0  0  0
  3 87  1  0  0  0  0
  3 88  1  0  0  0  0
  4  5  1  0  0  0  0
  4 89  1  0  0  0  0
  4 90  1  0  0  0  0
  5  6  1  0  0  0  0
  5 91  1  0  0  0  0
  5 92  1  0  0  0  0
  6  7  1  0  0  0  0
  6 93  1  0  0  0  0
  7  8  1  0  0  0  0
  7 94  1  0  0  0  0
  8  9  1  0  0  0  0
  8 95  1  0  0  0  0
  9 10  1  0  0  0  0
  9 96  1  0  0  0  0
 10 11  1  0  0  0  0
 10 97  1  0  0  0  0
 11 12  1  0  0  0  0
 11 98  1  0  0  0  0
 12 13  1  0  0  0  0
 12 99  1  0  0  0  0
 13 14  1  0  0  0  0
 13100  1  0  0  0  0
 14 15  1  0  0  0  0
 14101  1  0  0  0  0
 15 16  1  0  0  0  0
 15102  1  0  0  0  0
 16 17  1  0  0  0  0
 17 18  1  0  0  0  0
 18 19  1  0  0  0  0
 19 20  1  0  0  0  0
 20 21  1  0  0  0  0
 21 22  1  0  0  0  0
 22 23  1  0  0  0  0
 23 24  1  0  0  0  0
 24 25  1  0  0  0  0
 25 26  1  0  0  0  0
 26 27  1  0  0  0  0
 27 28  1  0  0  0  0
 28 29  1  0  0  0  0
 29 30  1  0  0  0  0
 30 31  1  0  0  0  0
 31 32  1  0  0  0  0
 32 33  1  0  0  0  0
 33 34  1  0  0  0  0
 34 35  1  0  0  0  0
 35 36  1  0  0  0  0
 36 37  1  0  0  0  0
 37 38  1  0  0  0  0
 38 39  1  0  0  0  0
 39 40  1  0  0  0  0
 40 41  1  0  0  0  0
 41 42  1  0  0  0  0
 42 43  1  0  0  0  0
 43 44  1  0  0  0  0
 44 45  1  0  0  0  0
 45 46  1  0  0  0  0
 46 47  1  0  0  0  0
 47 48  1  0  0  0  0
 48 49  1  0  0  0  0
 49 50  1  0  0  0  0
 50 51  1  0  0  0  0
 51 52  1  0  0  0  0
 52 53  1  0  0  0  0
 53 54  1  0  0  0  0
 54 55  1  0  0  0  0
 55 56  1  0  0  0  0
 56 57  1  0  0  0  0
 57 58  1  0  0  0  0
 58 59  1  0  0  0  0
 59 60  1  0  0  0  0
 60 61  1  0  0  0  0
 61 62  1  0  0  0  0
 62 63  1  0  0  0  0
 63 64  1  0  0  0  0
 64 65  1  0  0  0  0
 65 66  1  0  0  0  0
 66 67  1  0  0  0  0
 67 68  1  0  0  0  0
 68 69  1  0  0  0  0
 69 70  1  0  0  0  0
 70 71  1  0  0  0  0
 71 72  1  0  0  0  0
 72 73  1  0  0  0  0
 73 74  1  0  0  0  0
 74 75  1  0  0  0  0
 75 76  1  0  0  0  0
 76 77  1  0  0  0  0
 77 78  1  0  0  0  0
 78 79  1  0  0  0  0
 79 80  1  0  0  0  0
 80 81  1  0  0  0  0
 81103  1  0  0  0  0
M  END
$$$$
