
 OpenBabel04232216573D

161160  0  0  0  0  0  0  0  0999 V2000
   25.2890   12.6839  -21.8152 N   0  0  0  0  0  0  0  0  0  0  0  0
   24.3274   13.3305  -21.3536 N   0  0  0  0  0  0  0  0  0  0  0  0
   24.6263   14.7167  -20.9449 C   0  0  0  0  0  0  0  0  0  0  0  0
   23.7648   15.1493  -19.8192 N   0  0  0  0  0  0  0  0  0  0  0  0
   23.9717   14.2915  -18.7089 N   0  0  0  0  0  0  0  0  0  0  0  0
   25.3276   14.3782  -18.2654 N   0  0  0  0  0  0  0  0  0  0  0  0
   25.5402   13.5234  -17.1700 N   0  0  0  0  0  0  0  0  0  0  0  0
   25.2511   12.1734  -17.5307 N   0  0  0  0  0  0  0  0  0  0  0  0
   26.0925   11.7634  -18.6129 N   0  0  0  0  0  0  0  0  0  0  0  0
   27.4638   11.8585  -18.2176 N   0  0  0  0  0  0  0  0  0  0  0  0
   27.6936   11.0192  -17.0863 N   0  0  0  0  0  0  0  0  0  0  0  0
   27.3810    9.6666  -17.4255 N   0  0  0  0  0  0  0  0  0  0  0  0
   28.2042    9.2464  -18.5170 N   0  0  0  0  0  0  0  0  0  0  0  0
   29.5792    9.3483  -18.1429 N   0  0  0  0  0  0  0  0  0  0  0  0
   29.8254    8.5223  -17.0043 N   0  0  0  0  0  0  0  0  0  0  0  0
   29.5084    7.1658  -17.3219 N   0  0  0  0  0  0  0  0  0  0  0  0
   30.3144    6.7331  -18.4193 N   0  0  0  0  0  0  0  0  0  0  0  0
   31.6961    6.8438  -18.0653 N   0  0  0  0  0  0  0  0  0  0  0  0
   31.9534    6.0292  -16.9153 N   0  0  0  0  0  0  0  0  0  0  0  0
   31.6252    4.6666  -17.2185 N   0  0  0  0  0  0  0  0  0  0  0  0
   32.4221    4.2245  -18.3273 N   0  0  0  0  0  0  0  0  0  0  0  0
   33.8106    4.3336  -17.9870 N   0  0  0  0  0  0  0  0  0  0  0  0
   34.0808    3.5352  -16.8379 N   0  0  0  0  0  0  0  0  0  0  0  0
   33.7548    2.1779  -17.1156 N   0  0  0  0  0  0  0  0  0  0  0  0
   34.5285    1.7193  -18.2182 N   0  0  0  0  0  0  0  0  0  0  0  0
   35.9148    1.8282  -17.9072 N   0  0  0  0  0  0  0  0  0  0  0  0
   36.2085    1.0419  -16.7538 N   0  0  0  0  0  0  0  0  0  0  0  0
   35.8817   -0.3219  -17.0102 N   0  0  0  0  0  0  0  0  0  0  0  0
   36.6385   -0.7909  -18.1201 N   0  0  0  0  0  0  0  0  0  0  0  0
   38.0260   -0.6722  -17.8230 N   0  0  0  0  0  0  0  0  0  0  0  0
   38.3349   -1.4519  -16.6681 N   0  0  0  0  0  0  0  0  0  0  0  0
   38.0094   -2.8252  -16.9064 N   0  0  0  0  0  0  0  0  0  0  0  0
   38.7654   -3.3136  -18.0125 N   0  0  0  0  0  0  0  0  0  0  0  0
   40.1583   -3.2112  -17.7339 N   0  0  0  0  0  0  0  0  0  0  0  0
   40.4848   -3.9749  -16.5799 N   0  0  0  0  0  0  0  0  0  0  0  0
   40.1580   -5.3419  -16.7912 N   0  0  0  0  0  0  0  0  0  0  0  0
   40.8875   -5.8517  -17.9009 N   0  0  0  0  0  0  0  0  0  0  0  0
   42.2917   -5.7410  -17.6559 N   0  0  0  0  0  0  0  0  0  0  0  0
   42.6361   -6.4857  -16.4831 N   0  0  0  0  0  0  0  0  0  0  0  0
   42.2938   -7.8671  -16.6749 N   0  0  0  0  0  0  0  0  0  0  0  0
   43.0123   -8.3898  -17.8034 N   0  0  0  0  0  0  0  0  0  0  0  0
   44.4165   -8.2624  -17.5722 N   0  0  0  0  0  0  0  0  0  0  0  0
   44.7596   -8.9866  -16.3970 N   0  0  0  0  0  0  0  0  0  0  0  0
   44.4023  -10.3580  -16.5691 N   0  0  0  0  0  0  0  0  0  0  0  0
   45.0981  -10.8793  -17.7007 N   0  0  0  0  0  0  0  0  0  0  0  0
   46.5007  -10.7489  -17.4826 N   0  0  0  0  0  0  0  0  0  0  0  0
   46.8593  -11.4727  -16.3115 N   0  0  0  0  0  0  0  0  0  0  0  0
   46.5288  -12.8468  -16.4614 N   0  0  0  0  0  0  0  0  0  0  0  0
   47.2084  -13.3869  -17.5755 N   0  0  0  0  0  0  0  0  0  0  0  0
   48.6066  -13.2660  -17.3846 N   0  0  0  0  0  0  0  0  0  0  0  0
   48.9931  -13.9699  -16.2121 N   0  0  0  0  0  0  0  0  0  0  0  0
   48.6528  -15.3448  -16.3449 N   0  0  0  0  0  0  0  0  0  0  0  0
   49.3206  -15.9067  -17.4678 N   0  0  0  0  0  0  0  0  0  0  0  0
   50.7276  -15.7864  -17.3042 N   0  0  0  0  0  0  0  0  0  0  0  0
   51.1312  -16.4774  -16.1246 N   0  0  0  0  0  0  0  0  0  0  0  0
   50.7895  -17.8642  -16.2322 N   0  0  0  0  0  0  0  0  0  0  0  0
   51.4306  -18.4372  -17.3668 N   0  0  0  0  0  0  0  0  0  0  0  0
   52.8430  -18.3118  -17.2251 N   0  0  0  0  0  0  0  0  0  0  0  0
   53.2613  -18.9865  -16.0391 N   0  0  0  0  0  0  0  0  0  0  0  0
   52.9028  -20.3672  -16.1200 N   0  0  0  0  0  0  0  0  0  0  0  0
   53.5388  -20.9570  -17.2617 N   0  0  0  0  0  0  0  0  0  0  0  0
   54.9678  -20.8337  -17.1346 N   0  0  0  0  0  0  0  0  0  0  0  0
   55.3842  -21.4890  -15.9289 N   0  0  0  0  0  0  0  0  0  0  0  0
   55.0080  -22.8736  -16.0067 N   0  0  0  0  0  0  0  0  0  0  0  0
   55.6383  -23.4654  -17.1605 N   0  0  0  0  0  0  0  0  0  0  0  0
   57.0680  -23.3292  -17.0390 N   0  0  0  0  0  0  0  0  0  0  0  0
   57.5085  -23.9891  -15.8360 N   0  0  0  0  0  0  0  0  0  0  0  0
   57.1455  -25.3857  -15.8926 N   0  0  0  0  0  0  0  0  0  0  0  0
   57.7631  -25.9961  -17.0450 N   0  0  0  0  0  0  0  0  0  0  0  0
   59.1931  -25.8610  -16.9453 N   0  0  0  0  0  0  0  0  0  0  0  0
   59.6412  -26.5034  -15.7417 N   0  0  0  0  0  0  0  0  0  0  0  0
   59.2749  -27.8893  -15.7839 N   0  0  0  0  0  0  0  0  0  0  0  0
   59.8721  -28.5006  -16.9329 N   0  0  0  0  0  0  0  0  0  0  0  0
   61.2962  -28.3671  -16.8500 N   0  0  0  0  0  0  0  0  0  0  0  0
   61.7620  -28.9999  -15.6519 N   0  0  0  0  0  0  0  0  0  0  0  0
   61.3997  -30.3829  -15.6740 N   0  0  0  0  0  0  0  0  0  0  0  0
   61.9825  -31.0113  -16.8154 N   0  0  0  0  0  0  0  0  0  0  0  0
   63.4061  -30.8877  -16.7562 N   0  0  0  0  0  0  0  0  0  0  0  0
   63.8938  -31.5045  -15.5674 N   0  0  0  0  0  0  0  0  0  0  0  0
   63.5338  -32.8743  -15.5636 N   0  0  0  0  0  0  0  0  0  0  0  0
   25.0490   11.7144  -22.0889 H   0  0  0  0  0  0  0  0  0  0  0  0
   24.4669   15.4095  -21.7794 H   0  0  0  0  0  0  0  0  0  0  0  0
   25.6788   14.8260  -20.6388 H   0  0  0  0  0  0  0  0  0  0  0  0
   22.7940   15.0695  -20.1224 H   0  0  0  0  0  0  0  0  0  0  0  0
   23.7221   13.3494  -19.0094 H   0  0  0  0  0  0  0  0  0  0  0  0
   25.5346   15.3506  -18.0253 H   0  0  0  0  0  0  0  0  0  0  0  0
   24.9316   13.8132  -16.4111 H   0  0  0  0  0  0  0  0  0  0  0  0
   24.2786   12.1140  -17.8222 H   0  0  0  0  0  0  0  0  0  0  0  0
   25.9258   12.3809  -19.4164 H   0  0  0  0  0  0  0  0  0  0  0  0
   27.6592   12.8267  -17.9696 H   0  0  0  0  0  0  0  0  0  0  0  0
   27.0857   11.3201  -16.3269 H   0  0  0  0  0  0  0  0  0  0  0  0
   26.4025    9.6168  -17.7097 H   0  0  0  0  0  0  0  0  0  0  0  0
   28.0284    9.8566  -19.3167 H   0  0  0  0  0  0  0  0  0  0  0  0
   29.7845   10.3174  -17.9044 H   0  0  0  0  0  0  0  0  0  0  0  0
   29.2314    8.8306  -16.2368 H   0  0  0  0  0  0  0  0  0  0  0  0
   28.5267    7.1085  -17.5893 H   0  0  0  0  0  0  0  0  0  0  0  0
   30.1251    7.3267  -19.2277 H   0  0  0  0  0  0  0  0  0  0  0  0
   31.9114    7.8246  -17.8438 H   0  0  0  0  0  0  0  0  0  0  0  0
   31.3699    6.3598  -16.1345 H   0  0  0  0  0  0  0  0  0  0  0  0
   30.6252    4.6052  -17.4621 H   0  0  0  0  0  0  0  0  0  0  0  0
   32.2187    4.8080  -19.1519 H   0  0  0  0  0  0  0  0  0  0  0  0
   34.0420    5.3083  -17.7756 H   0  0  0  0  0  0  0  0  0  0  0  0
   33.5280    3.8429  -16.0468 H   0  0  0  0  0  0  0  0  0  0  0  0
   32.7783    2.0814  -17.3510 H   0  0  0  0  0  0  0  0  0  0  0  0
   34.3507    2.2675  -19.0440 H   0  0  0  0  0  0  0  0  0  0  0  0
   36.1662    2.7820  -17.7022 H   0  0  0  0  0  0  0  0  0  0  0  0
   35.6653    1.3461  -15.9623 H   0  0  0  0  0  0  0  0  0  0  0  0
   34.9086   -0.4212  -17.2400 H   0  0  0  0  0  0  0  0  0  0  0  0
   36.4482   -0.2487  -18.9503 H   0  0  0  0  0  0  0  0  0  0  0  0
   38.2810    0.2933  -17.6377 H   0  0  0  0  0  0  0  0  0  0  0  0
   37.7992   -1.1253  -15.8608 H   0  0  0  0  0  0  0  0  0  0  0  0
   37.0112   -2.9247  -17.1167 H   0  0  0  0  0  0  0  0  0  0  0  0
   38.5618   -2.7622  -18.8457 H   0  0  0  0  0  0  0  0  0  0  0  0
   40.4014   -2.2434  -17.5513 H   0  0  0  0  0  0  0  0  0  0  0  0
   39.9463   -3.6401  -15.7884 H   0  0  0  0  0  0  0  0  0  0  0  0
   39.1650   -5.4124  -16.9975 H   0  0  0  0  0  0  0  0  0  0  0  0
   40.6573   -5.2957  -18.7205 H   0  0  0  0  0  0  0  0  0  0  0  0
   42.4966   -4.7399  -17.5047 H   0  0  0  0  0  0  0  0  0  0  0  0
   42.0802   -6.0808  -15.7013 H   0  0  0  0  0  0  0  0  0  0  0  0
   41.2649   -7.8915  -16.8520 H   0  0  0  0  0  0  0  0  0  0  0  0
   42.7420   -7.8183  -18.6214 H   0  0  0  0  0  0  0  0  0  0  0  0
   44.6199   -7.2722  -17.4329 H   0  0  0  0  0  0  0  0  0  0  0  0
   44.2267   -8.6014  -15.6210 H   0  0  0  0  0  0  0  0  0  0  0  0
   43.3956  -10.4127  -16.7381 H   0  0  0  0  0  0  0  0  0  0  0  0
   44.8317  -10.3442  -18.5328 H   0  0  0  0  0  0  0  0  0  0  0  0
   46.7411   -9.7598  -17.3640 H   0  0  0  0  0  0  0  0  0  0  0  0
   46.3707  -11.1081  -15.4980 H   0  0  0  0  0  0  0  0  0  0  0  0
   45.5334  -12.9529  -16.6146 H   0  0  0  0  0  0  0  0  0  0  0  0
   46.9541  -12.8854  -18.4209 H   0  0  0  0  0  0  0  0  0  0  0  0
   48.8633  -12.2829  -17.2786 H   0  0  0  0  0  0  0  0  0  0  0  0
   48.5012  -13.5788  -15.4011 H   0  0  0  0  0  0  0  0  0  0  0  0
   47.6499  -15.4395  -16.4921 H   0  0  0  0  0  0  0  0  0  0  0  0
   49.0458  -15.4019  -18.3069 H   0  0  0  0  0  0  0  0  0  0  0  0
   50.9651  -14.7931  -17.2114 H   0  0  0  0  0  0  0  0  0  0  0  0
   50.6366  -16.0614  -15.3244 H   0  0  0  0  0  0  0  0  0  0  0  0
   49.7755  -17.9311  -16.3638 H   0  0  0  0  0  0  0  0  0  0  0  0
   51.1202  -17.9247  -18.2029 H   0  0  0  0  0  0  0  0  0  0  0  0
   53.0617  -17.3070  -17.1553 H   0  0  0  0  0  0  0  0  0  0  0  0
   52.7760  -18.5627  -15.2415 H   0  0  0  0  0  0  0  0  0  0  0  0
   51.8768  -20.4207  -16.2265 H   0  0  0  0  0  0  0  0  0  0  0  0
   53.2077  -20.4365  -18.0951 H   0  0  0  0  0  0  0  0  0  0  0  0
   55.1829  -19.8325  -17.0539 H   0  0  0  0  0  0  0  0  0  0  0  0
   54.9008  -21.0391  -15.1372 H   0  0  0  0  0  0  0  0  0  0  0  0
   53.9835  -22.9304  -16.1026 H   0  0  0  0  0  0  0  0  0  0  0  0
   55.3267  -22.9677  -18.0064 H   0  0  0  0  0  0  0  0  0  0  0  0
   57.3079  -22.3275  -16.9942 H   0  0  0  0  0  0  0  0  0  0  0  0
   57.0595  -23.5551  -15.0203 H   0  0  0  0  0  0  0  0  0  0  0  0
   56.1193  -25.4617  -15.9665 H   0  0  0  0  0  0  0  0  0  0  0  0
   57.4318  -25.5209  -17.8986 H   0  0  0  0  0  0  0  0  0  0  0  0
   59.4379  -24.8581  -16.9161 H   0  0  0  0  0  0  0  0  0  0  0  0
   59.2048  -26.0513  -14.9249 H   0  0  0  0  0  0  0  0  0  0  0  0
   58.2565  -27.9897  -15.8480 H   0  0  0  0  0  0  0  0  0  0  0  0
   59.5343  -28.0446  -17.7904 H   0  0  0  0  0  0  0  0  0  0  0  0
   61.5576  -27.3740  -16.8348 H   0  0  0  0  0  0  0  0  0  0  0  0
   61.3444  -28.5595  -14.8242 H   0  0  0  0  0  0  0  0  0  0  0  0
   60.3851  -30.4861  -15.7288 H   0  0  0  0  0  0  0  0  0  0  0  0
   61.6393  -30.5747  -17.6715 H   0  0  0  0  0  0  0  0  0  0  0  0
   63.6696  -29.8946  -16.7557 H   0  0  0  0  0  0  0  0  0  0  0  0
   63.4961  -31.0558  -14.7327 H   0  0  0  0  0  0  0  0  0  0  0  0
   63.9423  -33.3559  -16.3743 H   0  0  0  0  0  0  0  0  0  0  0  0
   62.5232  -33.0029  -15.6054 H   0  0  0  0  0  0  0  0  0  0  0  0
  1  2  2  0  0  0  0
  1 81  1  0  0  0  0
  2  3  1  0  0  0  0
  3  4  1  0  0  0  0
  3 82  1  0  0  0  0
  3 83  1  0  0  0  0
  4  5  1  0  0  0  0
  4 84  1  0  0  0  0
  5  6  1  0  0  0  0
  5 85  1  0  0  0  0
  6  7  1  0  0  0  0
  6 86  1  0  0  0  0
  7  8  1  0  0  0  0
  7 87  1  0  0  0  0
  8  9  1  0  0  0  0
  8 88  1  0  0  0  0
  9 10  1  0  0  0  0
  9 89  1  0  0  0  0
 10 11  1  0  0  0  0
 10 90  1  0  0  0  0
 11 12  1  0  0  0  0
 11 91  1  0  0  0  0
 12 13  1  0  0  0  0
 12 92  1  0  0  0  0
 13 14  1  0  0  0  0
 13 93  1  0  0  0  0
 14 15  1  0  0  0  0
 14 94  1  0  0  0  0
 15 16  1  0  0  0  0
 15 95  1  0  0  0  0
 16 17  1  0  0  0  0
 16 96  1  0  0  0  0
 17 18  1  0  0  0  0
 17 97  1  0  0  0  0
 18 19  1  0  0  0  0
 18 98  1  0  0  0  0
 19 20  1  0  0  0  0
 19 99  1  0  0  0  0
 20 21  1  0  0  0  0
 20100  1  0  0  0  0
 21 22  1  0  0  0  0
 21101  1  0  0  0  0
 22 23  1  0  0  0  0
 22102  1  0  0  0  0
 23 24  1  0  0  0  0
 23103  1  0  0  0  0
 24 25  1  0  0  0  0
 24104  1  0  0  0  0
 25 26  1  0  0  0  0
 25105  1  0  0  0  0
 26 27  1  0  0  0  0
 26106  1  0  0  0  0
 27 28  1  0  0  0  0
 27107  1  0  0  0  0
 28 29  1  0  0  0  0
 28108  1  0  0  0  0
 29 30  1  0  0  0  0
 29109  1  0  0  0  0
 30 31  1  0  0  0  0
 30110  1  0  0  0  0
 31 32  1  0  0  0  0
 31111  1  0  0  0  0
 32 33  1  0  0  0  0
 32112  1  0  0  0  0
 33 34  1  0  0  0  0
 33113  1  0  0  0  0
 34 35  1  0  0  0  0
 34114  1  0  0  0  0
 35 36  1  0  0  0  0
 35115  1  0  0  0  0
 36 37  1  0  0  0  0
 36116  1  0  0  0  0
 37 38  1  0  0  0  0
 37117  1  0  0  0  0
 38 39  1  0  0  0  0
 38118  1  0  0  0  0
 39 40  1  0  0  0  0
 39119  1  0  0  0  0
 40 41  1  0  0  0  0
 40120  1  0  0  0  0
 41 42  1  0  0  0  0
 41121  1  0  0  0  0
 42 43  1  0  0  0  0
 42122  1  0  0  0  0
 43 44  1  0  0  0  0
 43123  1  0  0  0  0
 44 45  1  0  0  0  0
 44124  1  0  0  0  0
 45 46  1  0  0  0  0
 45125  1  0  0  0  0
 46 47  1  0  0  0  0
 46126  1  0  0  0  0
 47 48  1  0  0  0  0
 47127  1  0  0  0  0
 48 49  1  0  0  0  0
 48128  1  0  0  0  0
 49 50  1  0  0  0  0
 49129  1  0  0  0  0
 50 51  1  0  0  0  0
 50130  1  0  0  0  0
 51 52  1  0  0  0  0
 51131  1  0  0  0  0
 52 53  1  0  0  0  0
 52132  1  0  0  0  0
 53 54  1  0  0  0  0
 53133  1  0  0  0  0
 54 55  1  0  0  0  0
 54134  1  0  0  0  0
 55 56  1  0  0  0  0
 55135  1  0  0  0  0
 56 57  1  0  0  0  0
 56136  1  0  0  0  0
 57 58  1  0  0  0  0
 57137  1  0  0  0  0
 58 59  1  0  0  0  0
 58138  1  0  0  0  0
 59 60  1  0  0  0  0
 59139  1  0  0  0  0
 60 61  1  0  0  0  0
 60140  1  0  0  0  0
 61 62  1  0  0  0  0
 61141  1  0  0  0  0
 62 63  1  0  0  0  0
 62142  1  0  0  0  0
 63 64  1  0  0  0  0
 63143  1  0  0  0  0
 64 65  1  0  0  0  0
 64144  1  0  0  0  0
 65 66  1  0  0  0  0
 65145  1  0  0  0  0
 66 67  1  0  0  0  0
 66146  1  0  0  0  0
 67 68  1  0  0  0  0
 67147  1  0  0  0  0
 68 69  1  0  0  0  0
 68148  1  0  0  0  0
 69 70  1  0  0  0  0
 69149  1  0  0  0  0
 70 71  1  0  0  0  0
 70150  1  0  0  0  0
 71 72  1  0  0  0  0
 71151  1  0  0  0  0
 72 73  1  0  0  0  0
 72152  1  0  0  0  0
 73 74  1  0  0  0  0
 73153  1  0  0  0  0
 74 75  1  0  0  0  0
 74154  1  0  0  0  0
 75 76  1  0  0  0  0
 75155  1  0  0  0  0
 76 77  1  0  0  0  0
 76156  1  0  0  0  0
 77 78  1  0  0  0  0
 77157  1  0  0  0  0
 78 79  1  0  0  0  0
 78158  1  0  0  0  0
 79 80  1  0  0  0  0
 79159  1  0  0  0  0
 80160  1  0  0  0  0
 80161  1  0  0  0  0
M  END
$$$$
