
 OpenBabel04232216583D

104103  0  0  0  0  0  0  0  0999 V2000
   34.0888   17.7680  -17.4647 N   0  0  0  0  0  0  0  0  0  0  0  0
   33.4548   17.1277  -16.3174 O   0  0  0  0  0  0  0  0  0  0  0  0
   32.0607   17.0002  -16.6028 C   0  0  0  0  0  0  0  0  0  0  0  0
   31.3441   16.3031  -15.4373 C   0  0  0  0  0  0  0  0  0  0  0  0
   29.8958   16.1471  -15.6483 N   0  0  0  0  0  0  0  0  0  0  0  0
   29.7163   15.3869  -16.8218 N   0  0  0  0  0  0  0  0  0  0  0  0
   28.3548   15.3277  -17.1396 N   0  0  0  0  0  0  0  0  0  0  0  0
   28.1112   14.6218  -18.3365 N   0  0  0  0  0  0  0  0  0  0  0  0
   28.4376   13.2852  -18.2746 N   0  0  0  0  0  0  0  0  0  0  0  0
   27.7653   12.7979  -17.1840 N   0  0  0  0  0  0  0  0  0  0  0  0
   26.4370   12.4691  -17.3089 N   0  0  0  0  0  0  0  0  0  0  0  0
   26.2034   11.6599  -18.4395 N   0  0  0  0  0  0  0  0  0  0  0  0
   26.8198   10.3850  -18.3369 N   0  0  0  0  0  0  0  0  0  0  0  0
   26.2820    9.7261  -17.2138 N   0  0  0  0  0  0  0  0  0  0  0  0
   24.8265    9.6626  -17.3207 N   0  0  0  0  0  0  0  0  0  0  0  0
   24.4573    8.9257  -18.4994 N   0  0  0  0  0  0  0  0  0  0  0  0
   24.9551    7.5771  -18.4486 N   0  0  0  0  0  0  0  0  0  0  0  0
   24.4424    6.8497  -17.3101 N   0  0  0  0  0  0  0  0  0  0  0  0
   23.0085    6.7260  -17.3299 N   0  0  0  0  0  0  0  0  0  0  0  0
   22.4423    5.9169  -15.9969 S   0  0  0  0  0  0  0  0  0  0  0  0
   22.8628    6.7477  -14.6132 N   0  0  0  0  0  0  0  0  0  0  0  0
   22.2260    8.2740  -14.5984 S   0  0  0  0  0  0  0  0  0  0  0  0
   22.9017    9.0360  -12.8085 S   0  0  0  0  0  0  0  0  0  0  0  0
   24.9584    9.0482  -12.8152 S   0  0  0  0  0  0  0  0  0  0  0  0
   25.7085   10.3233  -14.2539 S   0  0  0  0  0  0  0  0  0  0  0  0
   27.8208   10.1027  -14.0960 S   0  0  0  0  0  0  0  0  0  0  0  0
   28.7889   10.9489  -15.7089 S   0  0  0  0  0  0  0  0  0  0  0  0
   30.8261   11.3174  -15.8156 S   0  0  0  0  0  0  0  0  0  0  0  0
   31.3642   12.4692  -17.5373 S   0  0  0  0  0  0  0  0  0  0  0  0
   33.4509   12.5550  -17.5826 S   0  0  0  0  0  0  0  0  0  0  0  0
   34.0963   13.7187  -19.2030 S   0  0  0  0  0  0  0  0  0  0  0  0
   36.2050   13.7121  -19.1969 S   0  0  0  0  0  0  0  0  0  0  0  0
   36.8952   14.8736  -20.8133 S   0  0  0  0  0  0  0  0  0  0  0  0
   39.0054   14.8651  -20.8025 S   0  0  0  0  0  0  0  0  0  0  0  0
   39.6964   16.0290  -22.4207 S   0  0  0  0  0  0  0  0  0  0  0  0
   41.8059   16.0213  -22.4101 S   0  0  0  0  0  0  0  0  0  0  0  0
   42.4966   17.1851  -24.0282 S   0  0  0  0  0  0  0  0  0  0  0  0
   44.6060   17.1774  -24.0175 S   0  0  0  0  0  0  0  0  0  0  0  0
   45.2966   18.3412  -25.6355 S   0  0  0  0  0  0  0  0  0  0  0  0
   47.4059   18.3334  -25.6248 S   0  0  0  0  0  0  0  0  0  0  0  0
   48.0965   19.4972  -27.2428 S   0  0  0  0  0  0  0  0  0  0  0  0
   50.2056   19.4892  -27.2317 S   0  0  0  0  0  0  0  0  0  0  0  0
   50.8960   20.6528  -28.8495 S   0  0  0  0  0  0  0  0  0  0  0  0
   53.0050   20.6449  -28.8384 S   0  0  0  0  0  0  0  0  0  0  0  0
   53.6943   21.8087  -30.4566 S   0  0  0  0  0  0  0  0  0  0  0  0
   55.8035   21.8017  -30.4468 S   0  0  0  0  0  0  0  0  0  0  0  0
   56.4931   22.9659  -32.0654 S   0  0  0  0  0  0  0  0  0  0  0  0
   58.6027   22.9584  -32.0550 S   0  0  0  0  0  0  0  0  0  0  0  0
   59.2951   24.1220  -33.6728 S   0  0  0  0  0  0  0  0  0  0  0  0
   61.4050   24.1136  -33.6612 S   0  0  0  0  0  0  0  0  0  0  0  0
   62.0963   25.2775  -35.2794 S   0  0  0  0  0  0  0  0  0  0  0  0
   64.2057   25.2699  -35.2688 S   0  0  0  0  0  0  0  0  0  0  0  0
   64.8965   26.4337  -36.8869 S   0  0  0  0  0  0  0  0  0  0  0  0
   67.0059   26.4260  -36.8761 S   0  0  0  0  0  0  0  0  0  0  0  0
   67.6966   27.5898  -38.4942 S   0  0  0  0  0  0  0  0  0  0  0  0
   69.8059   27.5820  -38.4834 S   0  0  0  0  0  0  0  0  0  0  0  0
   70.4965   28.7458  -40.1015 S   0  0  0  0  0  0  0  0  0  0  0  0
   72.6059   28.7381  -40.0908 S   0  0  0  0  0  0  0  0  0  0  0  0
   73.2965   29.9019  -41.7089 S   0  0  0  0  0  0  0  0  0  0  0  0
   75.4059   29.8942  -41.6981 S   0  0  0  0  0  0  0  0  0  0  0  0
   76.0965   31.0580  -43.3162 S   0  0  0  0  0  0  0  0  0  0  0  0
   78.2059   31.0502  -43.3054 S   0  0  0  0  0  0  0  0  0  0  0  0
   78.8965   32.2140  -44.9235 S   0  0  0  0  0  0  0  0  0  0  0  0
   81.0059   32.2063  -44.9128 S   0  0  0  0  0  0  0  0  0  0  0  0
   81.6965   33.3701  -46.5308 S   0  0  0  0  0  0  0  0  0  0  0  0
   83.8059   33.3624  -46.5201 S   0  0  0  0  0  0  0  0  0  0  0  0
   84.4965   34.5262  -48.1382 S   0  0  0  0  0  0  0  0  0  0  0  0
   86.6058   34.5184  -48.1274 S   0  0  0  0  0  0  0  0  0  0  0  0
   87.2963   35.6822  -49.7454 S   0  0  0  0  0  0  0  0  0  0  0  0
   89.4054   35.6743  -49.7345 S   0  0  0  0  0  0  0  0  0  0  0  0
   90.0955   36.8379  -51.3523 S   0  0  0  0  0  0  0  0  0  0  0  0
   92.2039   36.8298  -51.3410 S   0  0  0  0  0  0  0  0  0  0  0  0
   92.8925   37.9929  -52.9581 S   0  0  0  0  0  0  0  0  0  0  0  0
   94.9987   37.9836  -52.9452 S   0  0  0  0  0  0  0  0  0  0  0  0
   95.6838   39.1450  -54.5602 S   0  0  0  0  0  0  0  0  0  0  0  0
   97.7838   39.1329  -54.5421 S   0  0  0  0  0  0  0  0  0  0  0  0
   98.4590   40.2905  -56.1527 S   0  0  0  0  0  0  0  0  0  0  0  0
  100.5446   40.2473  -56.1367 S   0  0  0  0  0  0  0  0  0  0  0  0
  101.2085   41.4540  -57.6912 S   0  0  0  0  0  0  0  0  0  0  0  0
  103.2792   41.3752  -57.6824 S   0  0  0  0  0  0  0  0  0  0  0  0
  103.8697   42.2542  -55.9178 S   0  0  0  0  0  0  0  0  0  0  0  0
   35.0659   17.7725  -17.1645 H   0  0  0  0  0  0  0  0  0  0  0  0
   33.7751   18.7342  -17.3581 H   0  0  0  0  0  0  0  0  0  0  0  0
   31.9265   16.4223  -17.5275 H   0  0  0  0  0  0  0  0  0  0  0  0
   31.6234   17.9960  -16.7452 H   0  0  0  0  0  0  0  0  0  0  0  0
   31.4990   16.8844  -14.5248 H   0  0  0  0  0  0  0  0  0  0  0  0
   31.8046   15.3249  -15.2390 H   0  0  0  0  0  0  0  0  0  0  0  0
   29.4590   17.0440  -15.8380 H   0  0  0  0  0  0  0  0  0  0  0  0
   30.1628   14.4737  -16.6918 H   0  0  0  0  0  0  0  0  0  0  0  0
   27.9168   16.2416  -17.1568 H   0  0  0  0  0  0  0  0  0  0  0  0
   28.5983   15.1398  -19.1676 H   0  0  0  0  0  0  0  0  0  0  0  0
   29.4527   13.1436  -18.0842 H   0  0  0  0  0  0  0  0  0  0  0  0
   28.0599   13.0774  -16.2564 H   0  0  0  0  0  0  0  0  0  0  0  0
   25.9635   13.3366  -17.3273 H   0  0  0  0  0  0  0  0  0  0  0  0
   26.7045   12.1347  -19.1751 H   0  0  0  0  0  0  0  0  0  0  0  0
   27.8234   10.5179  -18.1856 H   0  0  0  0  0  0  0  0  0  0  0  0
   26.5221   10.3168  -16.4110 H   0  0  0  0  0  0  0  0  0  0  0  0
   24.5167   10.6389  -17.4121 H   0  0  0  0  0  0  0  0  0  0  0  0
   24.9063    9.4080  -19.2982 H   0  0  0  0  0  0  0  0  0  0  0  0
   25.9709    7.6189  -18.4220 H   0  0  0  0  0  0  0  0  0  0  0  0
   24.7076    7.3284  -16.4473 H   0  0  0  0  0  0  0  0  0  0  0  0
   22.7210    6.2732  -18.2005 H   0  0  0  0  0  0  0  0  0  0  0  0
   23.8728    6.7526  -14.4878 H   0  0  0  0  0  0  0  0  0  0  0  0
  105.2094   42.1688  -56.0090 H   0  0  0  0  0  0  0  0  0  0  0  0
  1  2  1  0  0  0  0
  1 82  1  0  0  0  0
  1 83  1  0  0  0  0
  2  3  1  0  0  0  0
  3  4  1  0  0  0  0
  3 84  1  0  0  0  0
  3 85  1  0  0  0  0
  4  5  1  0  0  0  0
  4 86  1  0  0  0  0
  4 87  1  0  0  0  0
  5  6  1  0  0  0  0
  5 88  1  0  0  0  0
  6  7  1  0  0  0  0
  6 89  1  0  0  0  0
  7  8  1  0  0  0  0
  7 90  1  0  0  0  0
  8  9  1  0  0  0  0
  8 91  1  0  0  0  0
  9 10  1  0  0  0  0
  9 92  1  0  0  0  0
 10 11  1  0  0  0  0
 10 93  1  0  0  0  0
 11 12  1  0  0  0  0
 11 94  1  0  0  0  0
 12 13  1  0  0  0  0
 12 95  1  0  0  0  0
 13 14  1  0  0  0  0
 13 96  1  0  0  0  0
 14 15  1  0  0  0  0
 14 97  1  0  0  0  0
 15 16  1  0  0  0  0
 15 98  1  0  0  0  0
 16 17  1  0  0  0  0
 16 99  1  0  0  0  0
 17 18  1  0  0  0  0
 17100  1  0  0  0  0
 18 19  1  0  0  0  0
 18101  1  0  0  0  0
 19 20  1  0  0  0  0
 19102  1  0  0  0  0
 20 21  1  0  0  0  0
 21 22  1  0  0  0  0
 21103  1  0  0  0  0
 22 23  1  0  0  0  0
 23 24  1  0  0  0  0
 24 25  1  0  0  0  0
 25 26  1  0  0  0  0
 26 27  1  0  0  0  0
 27 28  1  0  0  0  0
 28 29  1  0  0  0  0
 29 30  1  0  0  0  0
 30 31  1  0  0  0  0
 31 32  1  0  0  0  0
 32 33  1  0  0  0  0
 33 34  1  0  0  0  0
 34 35  1  0  0  0  0
 35 36  1  0  0  0  0
 36 37  1  0  0  0  0
 37 38  1  0  0  0  0
 38 39  1  0  0  0  0
 39 40  1  0  0  0  0
 40 41  1  0  0  0  0
 41 42  1  0  0  0  0
 42 43  1  0  0  0  0
 43 44  1  0  0  0  0
 44 45  1  0  0  0  0
 45 46  1  0  0  0  0
 46 47  1  0  0  0  0
 47 48  1  0  0  0  0
 48 49  1  0  0  0  0
 49 50  1  0  0  0  0
 50 51  1  0  0  0  0
 51 52  1  0  0  0  0
 52 53  1  0  0  0  0
 53 54  1  0  0  0  0
 54 55  1  0  0  0  0
 55 56  1  0  0  0  0
 56 57  1  0  0  0  0
 57 58  1  0  0  0  0
 58 59  1  0  0  0  0
 59 60  1  0  0  0  0
 60 61  1  0  0  0  0
 61 62  1  0  0  0  0
 62 63  1  0  0  0  0
 63 64  1  0  0  0  0
 64 65  1  0  0  0  0
 65 66  1  0  0  0  0
 66 67  1  0  0  0  0
 67 68  1  0  0  0  0
 68 69  1  0  0  0  0
 69 70  1  0  0  0  0
 70 71  1  0  0  0  0
 71 72  1  0  0  0  0
 72 73  1  0  0  0  0
 73 74  1  0  0  0  0
 74 75  1  0  0  0  0
 75 76  1  0  0  0  0
 76 77  1  0  0  0  0
 77 78  1  0  0  0  0
 78 79  1  0  0  0  0
 79 80  1  0  0  0  0
 80 81  1  0  0  0  0
 81104  1  0  0  0  0
M  END
$$$$
