
 OpenBabel04232216453D

 30 31  0  0  0  0  0  0  0  0999 V2000
    3.0915    1.8064    0.8594 C   0  0  0  0  0  0  0  0  0  0  0  0
    3.9193    2.5738   -0.1406 C   0  0  0  0  0  0  0  0  0  0  0  0
    3.8938    2.3000   -1.4633 C   0  0  0  0  0  0  0  0  0  0  0  0
    4.3284    0.9162   -1.7171 C   0  0  0  0  0  0  0  0  0  0  0  0
    3.5671   -0.0362   -1.6804 O   0  0  0  0  0  0  0  0  0  0  0  0
    5.6812    0.7985   -1.9016 N   0  0  0  0  0  0  0  0  0  0  0  0
    6.4699    1.2869   -0.9927 C   0  0  0  0  0  0  0  0  0  0  0  0
    7.5412    0.4090   -0.3814 C   0  0  0  0  0  0  0  0  0  0  0  0
    7.1521   -1.0554   -0.3886 C   0  0  0  0  0  0  0  0  0  0  0  0
    6.7284    2.7751   -0.7809 C   0  0  0  0  0  0  0  0  0  0  0  0
    7.8846    3.1149   -1.2760 N   0  0  0  0  0  0  0  0  0  0  0  0
    8.3760    4.3612   -0.9985 C   0  0  0  0  0  0  0  0  0  0  0  0
    9.5069    4.6918   -1.3269 O   0  0  0  0  0  0  0  0  0  0  0  0
    7.5736    5.3525   -0.1646 C   0  0  0  0  0  0  0  0  0  0  0  0
    8.2044    6.6961    0.0980 C   0  0  0  0  0  0  0  0  0  0  0  0
    6.4138    5.0366    0.3349 N   0  0  0  0  0  0  0  0  0  0  0  0
    5.8790    3.8146   -0.0078 C   0  0  0  0  0  0  0  0  0  0  0  0
    4.6196    3.6692    0.3080 N   0  0  0  0  0  0  0  0  0  0  0  0
    2.2179    2.4142    1.1297 H   0  0  0  0  0  0  0  0  0  0  0  0
    3.6408    1.5696    1.7721 H   0  0  0  0  0  0  0  0  0  0  0  0
    2.6937    0.8678    0.4583 H   0  0  0  0  0  0  0  0  0  0  0  0
    4.2996    2.9925   -2.1901 H   0  0  0  0  0  0  0  0  0  0  0  0
    7.6960    0.7447    0.6487 H   0  0  0  0  0  0  0  0  0  0  0  0
    8.4781    0.5526   -0.9288 H   0  0  0  0  0  0  0  0  0  0  0  0
    6.2123   -1.2105    0.1533 H   0  0  0  0  0  0  0  0  0  0  0  0
    7.9325   -1.6574    0.0845 H   0  0  0  0  0  0  0  0  0  0  0  0
    7.0141   -1.4145   -1.4127 H   0  0  0  0  0  0  0  0  0  0  0  0
    9.0432    6.8931   -0.5771 H   0  0  0  0  0  0  0  0  0  0  0  0
    8.5692    6.7366    1.1278 H   0  0  0  0  0  0  0  0  0  0  0  0
    7.4643    7.4844   -0.0566 H   0  0  0  0  0  0  0  0  0  0  0  0
  1  2  1  0  0  0  0
  1 19  1  0  0  0  0
  1 20  1  0  0  0  0
  1 21  1  0  0  0  0
  2  3  2  0  0  0  0
  2 18  1  0  0  0  0
  3  4  1  0  0  0  0
  3 22  1  0  0  0  0
  4  5  2  0  0  0  0
  4  6  1  0  0  0  0
  6  7  2  0  0  0  0
  7  8  1  0  0  0  0
  7 10  1  0  0  0  0
  8  9  1  0  0  0  0
  8 23  1  0  0  0  0
  8 24  1  0  0  0  0
  9 25  1  0  0  0  0
  9 26  1  0  0  0  0
  9 27  1  0  0  0  0
 10 11  2  0  0  0  0
 10 17  1  0  0  0  0
 11 12  1  0  0  0  0
 12 13  2  0  0  0  0
 12 14  1  0  0  0  0
 14 15  1  0  0  0  0
 14 16  2  0  0  0  0
 15 28  1  0  0  0  0
 15 29  1  0  0  0  0
 15 30  1  0  0  0  0
 16 17  1  0  0  0  0
 17 18  2  0  0  0  0
M  END
$$$$
