
 OpenBabel04232216443D

115118  0  0  1  0  0  0  0  0999 V2000
   13.3301   -3.3720   -3.5065 C   0  0  0  0  0  0  0  0  0  0  0  0
   16.5262   -4.0915   -4.2478 C   0  0  0  0  0  0  0  0  0  0  0  0
   13.6376   -2.2271   -3.2613 C   0  0  0  0  0  0  0  0  0  0  0  0
   10.8876   -0.4582   -2.1975 C   0  0  3  0  0  0  0  0  0  0  0  0
    8.2431    1.4291   -1.0118 C   0  0  0  0  0  0  0  0  0  0  0  0
    6.4243    3.0107    0.6638 C   0  0  0  0  0  0  0  0  0  0  0  0
    7.1343    3.6336    1.9594 C   0  0  0  0  0  0  0  0  0  0  0  0
    7.2939    3.6743    3.4661 C   0  0  0  0  0  0  0  0  0  0  0  0
   12.6789   -1.7639   -2.2887 C   0  0  0  0  0  0  0  0  0  0  0  0
   15.1014   -2.7827   -2.7551 C   0  0  0  0  0  0  0  0  0  0  0  0
   17.3998   -4.0806   -3.2489 C   0  0  0  0  0  0  0  0  0  0  0  0
   19.9692   -5.6797   -4.3490 C   0  0  0  0  0  0  0  0  0  0  0  0
   17.0601   -4.7808   -3.0927 C   0  0  0  0  0  0  0  0  0  0  0  0
   14.5887   -4.0175   -2.1356 C   0  0  0  0  0  0  0  0  0  0  0  0
   12.2299   -2.7917   -0.9750 C   0  0  0  0  0  0  0  0  0  0  0  0
   11.6569   -3.0204    0.4383 C   0  0  0  0  0  0  0  0  0  0  0  0
   12.1642   -1.7899    0.6343 C   0  0  0  0  0  0  0  0  0  0  0  0
   13.2969   -2.4695   -0.0007 C   0  0  0  0  0  0  0  0  0  0  0  0
   13.8768   -3.5007   -0.0138 C   0  0  0  0  0  0  0  0  0  0  0  0
   14.9205   -3.1907   -0.5180 C   0  0  0  0  0  0  0  0  0  0  0  0
   15.9127   -4.0915   -0.8260 C   0  0  0  0  0  0  0  0  0  0  0  0
   16.5275   -5.3263   -1.3380 C   0  0  0  0  0  0  0  0  0  0  0  0
   18.0373   -5.1527   -1.7546 C   0  0  0  0  0  0  0  0  0  0  0  0
   18.6231   -6.2816   -2.4810 C   0  0  0  0  0  0  0  0  0  0  0  0
   20.1180   -6.1324   -2.4887 C   0  0  0  0  0  0  0  0  0  0  0  0
   20.7770   -7.4146   -2.9735 C   0  0  0  0  0  0  0  0  0  0  0  0
   22.2569   -7.0025   -3.1824 C   0  0  0  0  0  0  0  0  0  0  0  0
   22.9448   -8.0116   -3.8251 C   0  0  0  0  0  0  0  0  0  0  0  0
   24.3250   -7.8411   -4.1220 C   0  0  0  0  0  0  0  0  0  0  0  0
   24.9685   -8.7491   -4.7979 C   0  0  0  0  0  0  0  0  0  0  0  0
   26.3547   -8.7245   -4.6119 C   0  0  0  0  0  0  0  0  0  0  0  0
   27.0435   -9.8824   -4.8357 C   0  0  0  0  0  0  0  0  0  0  0  0
   28.6641   -9.4235   -5.0265 C   0  0  0  0  0  0  0  0  0  0  0  0
   29.2059  -10.5130   -5.6570 C   0  0  0  0  0  0  0  0  0  0  0  0
   30.8093  -10.6425   -5.6376 C   0  0  0  0  0  0  0  0  0  0  0  0
   31.6790  -11.6017   -5.9903 C   0  0  0  0  0  0  0  0  0  0  0  0
   33.4665  -10.7144   -5.6923 C   0  0  0  0  0  0  0  0  0  0  0  0
   34.2382  -12.0526   -5.0156 C   0  0  0  0  0  0  0  0  0  0  0  0
   35.4779  -12.8004   -6.1133 C   0  0  0  0  0  0  0  0  0  0  0  0
   34.9860  -11.9024   -6.7415 C   0  0  0  0  0  0  0  0  0  0  0  0
   36.9295  -12.6281   -6.8835 C   0  0  0  0  0  0  0  0  0  0  0  0
   37.6791  -13.9089   -7.1256 C   0  0  0  0  0  0  0  0  0  0  0  0
   39.0400  -14.6013   -7.5708 C   0  0  0  0  0  0  0  0  0  0  0  0
   37.4493  -13.6921   -8.1044 C   0  0  0  0  0  0  0  0  0  0  0  0
   34.8752  -12.7089   -7.8921 C   0  0  0  0  0  0  0  0  0  0  0  0
   32.3800  -11.8360   -7.5867 C   0  0  0  0  0  0  0  0  0  0  0  0
   29.6632  -10.3244   -6.9945 C   0  0  0  0  0  0  0  0  0  0  0  0
   32.5582  -12.1497   -8.2357 C   0  0  0  0  0  0  0  0  0  0  0  0
   35.1222  -13.3393   -9.0751 C   0  0  0  0  0  0  0  0  0  0  0  0
   37.7480  -14.7045   -9.6563 C   0  0  0  0  0  0  0  0  0  0  0  0
   40.0206  -15.2064  -10.0736 C   0  0  0  0  0  0  0  0  0  0  0  0
   38.1606  -13.5289   -9.7009 C   0  0  0  0  0  0  0  0  0  0  0  0
   35.8512  -12.0561   -9.2150 C   0  0  0  0  0  0  0  0  0  0  0  0
   32.7770  -10.7141   -8.3712 C   0  0  0  0  0  0  0  0  0  0  0  0
   29.8879  -10.1820   -7.3595 C   0  0  0  0  0  0  0  0  0  0  0  0
   26.5153   -8.8805   -6.3546 C   0  0  0  0  0  0  0  0  0  0  0  0
   22.7489   -6.8823   -5.3540 C   0  0  0  0  0  0  0  0  0  0  0  0
   19.4073   -5.4712   -4.8028 N   0  0  0  0  0  0  0  0  0  0  0  0
   11.1479   -2.7882   -2.8084 H   0  0  0  0  0  0  0  0  0  0  0  0
   11.1764   -2.8669   -2.6793 H   0  0  0  0  0  0  0  0  0  0  0  0
   11.1196   -2.9433   -2.7908 H   0  0  0  0  0  0  0  0  0  0  0  0
    8.8546    0.5704   -1.8796 H   0  0  0  0  0  0  0  0  0  0  0  0
    6.1909    2.4045   -0.5364 H   0  0  0  0  0  0  0  0  0  0  0  0
    6.5782    2.9807   -0.5923 H   0  0  0  0  0  0  0  0  0  0  0  0
    5.1315    3.0211    2.0698 H   0  0  0  0  0  0  0  0  0  0  0  0
    5.4497    4.5375    1.7531 H   0  0  0  0  0  0  0  0  0  0  0  0
    7.6604    4.4514    1.5194 H   0  0  0  0  0  0  0  0  0  0  0  0
    7.4721    2.6978    1.6006 H   0  0  0  0  0  0  0  0  0  0  0  0
    6.9539    4.6216    3.8720 H   0  0  0  0  0  0  0  0  0  0  0  0
    8.3509    3.5611    3.7057 H   0  0  0  0  0  0  0  0  0  0  0  0
    6.7458    2.8729    3.9379 H   0  0  0  0  0  0  0  0  0  0  0  0
   13.0911   -2.0530   -1.9979 H   0  0  0  0  0  0  0  0  0  0  0  0
   15.5945   -3.0900   -2.5865 H   0  0  0  0  0  0  0  0  0  0  0  0
   15.0782   -4.2454   -2.4922 H   0  0  0  0  0  0  0  0  0  0  0  0
   12.5360   -3.3444   -1.6316 H   0  0  0  0  0  0  0  0  0  0  0  0
   10.7619   -1.5562    0.1766 H   0  0  0  0  0  0  0  0  0  0  0  0
   10.3188   -3.1769   -0.1063 H   0  0  0  0  0  0  0  0  0  0  0  0
   11.7676   -0.8401    0.5135 H   0  0  0  0  0  0  0  0  0  0  0  0
   12.4731   -3.9872   -0.6180 H   0  0  0  0  0  0  0  0  0  0  0  0
   13.9395   -2.2316   -0.1202 H   0  0  0  0  0  0  0  0  0  0  0  0
   14.1550   -4.5921   -0.8937 H   0  0  0  0  0  0  0  0  0  0  0  0
   16.2096   -3.1079   -0.8484 H   0  0  0  0  0  0  0  0  0  0  0  0
   15.7015   -5.8221   -2.4487 H   0  0  0  0  0  0  0  0  0  0  0  0
   18.2960   -4.1226   -1.5257 H   0  0  0  0  0  0  0  0  0  0  0  0
   18.3825   -7.2590   -3.6464 H   0  0  0  0  0  0  0  0  0  0  0  0
   20.4626   -5.1233   -2.2461 H   0  0  0  0  0  0  0  0  0  0  0  0
   20.2495   -8.8111   -3.3158 H   0  0  0  0  0  0  0  0  0  0  0  0
   22.6633   -6.0553   -2.8949 H   0  0  0  0  0  0  0  0  0  0  0  0
   22.2757   -8.6086   -4.6104 H   0  0  0  0  0  0  0  0  0  0  0  0
   24.8341   -7.0715   -3.6072 H   0  0  0  0  0  0  0  0  0  0  0  0
   24.4526   -9.5214   -5.3402 H   0  0  0  0  0  0  0  0  0  0  0  0
   27.0194   -8.0076   -4.2722 H   0  0  0  0  0  0  0  0  0  0  0  0
   26.6025  -10.5800   -5.9094 H   0  0  0  0  0  0  0  0  0  0  0  0
   29.5742   -8.9089   -4.9826 H   0  0  0  0  0  0  0  0  0  0  0  0
   28.8351  -11.5404   -6.6305 H   0  0  0  0  0  0  0  0  0  0  0  0
   31.4537   -9.8909   -5.6143 H   0  0  0  0  0  0  0  0  0  0  0  0
   31.0284  -12.5028   -7.1742 H   0  0  0  0  0  0  0  0  0  0  0  0
   34.2989   -9.4278   -5.1822 H   0  0  0  0  0  0  0  0  0  0  0  0
   33.2997  -12.5846   -3.9192 H   0  0  0  0  0  0  0  0  0  0  0  0
   35.8019  -11.6560   -6.9048 H   0  0  0  0  0  0  0  0  0  0  0  0
   34.4956  -13.6325   -7.1572 H   0  0  0  0  0  0  0  0  0  0  0  0
   37.9041  -12.5056   -7.4422 H   0  0  0  0  0  0  0  0  0  0  0  0
   37.1326  -15.0853   -8.0400 H   0  0  0  0  0  0  0  0  0  0  0  0
   40.1759  -13.7324   -8.1585 H   0  0  0  0  0  0  0  0  0  0  0  0
   39.2737  -14.8074   -8.4068 H   0  0  0  0  0  0  0  0  0  0  0  0
   36.8666  -13.4289   -8.4476 H   0  0  0  0  0  0  0  0  0  0  0  0
   34.2163  -12.6460   -8.1262 H   0  0  0  0  0  0  0  0  0  0  0  0
   34.2013  -13.3920   -8.9323 H   0  0  0  0  0  0  0  0  0  0  0  0
   37.0077  -14.4831   -9.2984 H   0  0  0  0  0  0  0  0  0  0  0  0
   39.7491  -15.8140  -10.1083 H   0  0  0  0  0  0  0  0  0  0  0  0
   42.2715  -16.2985  -10.5339 H   0  0  0  0  0  0  0  0  0  0  0  0
   40.1910  -14.5676  -10.0718 H   0  0  0  0  0  0  0  0  0  0  0  0
   37.8775  -13.0703   -9.4795 H   0  0  0  0  0  0  0  0  0  0  0  0
   34.8217  -11.5055   -8.7396 H   0  0  0  0  0  0  0  0  0  0  0  0
   31.8256  -10.5930   -7.7350 H   0  0  0  0  0  0  0  0  0  0  0  0
  1  2  1  0  0  0  0
  1 59  1  0  0  0  0
  1 60  1  0  0  0  0
  1 61  1  0  0  0  0
  2  3  1  0  0  0  0
  2 58  2  0  0  0  0
  3  4  1  0  0  0  0
  3  9  2  0  0  0  0
  4  5  1  0  0  0  0
  4  9  1  0  0  0  0
  4 62  1  0  0  0  0
  5  6  1  0  0  0  0
  5 63  1  0  0  0  0
  5 64  1  0  0  0  0
  6  7  1  0  0  0  0
  6 65  1  0  0  0  0
  6 66  1  0  0  0  0
  7  8  1  0  0  0  0
  7 67  1  0  0  0  0
  7 68  1  0  0  0  0
  8 69  1  0  0  0  0
  8 70  1  0  0  0  0
  8 71  1  0  0  0  0
  9 10  1  0  0  0  0
 10 11  2  0  0  0  0
 10 72  1  0  0  0  0
 11 12  1  0  0  0  0
 11 73  1  0  0  0  0
 12 13  1  0  0  0  0
 12 57  2  0  0  0  0
 13 14  2  3  0  0  0
 13 74  1  0  0  0  0
 14 15  1  0  0  0  0
 14 75  1  0  0  0  0
 15 16  2  3  0  0  0
 15 76  1  0  0  0  0
 16 17  1  0  0  0  0
 16 77  1  0  0  0  0
 17 18  2  3  0  0  0
 17 78  1  0  0  0  0
 18 19  1  0  0  0  0
 18 79  1  0  0  0  0
 19 20  2  3  0  0  0
 19 80  1  0  0  0  0
 20 21  1  0  0  0  0
 20 81  1  0  0  0  0
 21 22  2  3  0  0  0
 21 82  1  0  0  0  0
 22 23  1  0  0  0  0
 22 83  1  0  0  0  0
 23 24  2  3  0  0  0
 23 84  1  0  0  0  0
 24 25  1  0  0  0  0
 24 85  1  0  0  0  0
 25 26  2  3  0  0  0
 25 86  1  0  0  0  0
 26 27  1  0  0  0  0
 26 87  1  0  0  0  0
 27 28  2  3  0  0  0
 27 88  1  0  0  0  0
 28 29  1  0  0  0  0
 28 89  1  0  0  0  0
 29 30  2  3  0  0  0
 29 90  1  0  0  0  0
 30 31  1  0  0  0  0
 30 91  1  0  0  0  0
 31 32  2  3  0  0  0
 31 92  1  0  0  0  0
 32 33  1  0  0  0  0
 32 93  1  0  0  0  0
 33 34  2  3  0  0  0
 33 94  1  0  0  0  0
 34 35  1  0  0  0  0
 34 95  1  0  0  0  0
 35 36  2  3  0  0  0
 35 96  1  0  0  0  0
 36 37  1  0  0  0  0
 36 97  1  0  0  0  0
 37 38  2  3  0  0  0
 37 98  1  0  0  0  0
 38 39  1  0  0  0  0
 38 99  1  0  0  0  0
 39 40  2  3  0  0  0
 39100  1  0  0  0  0
 40 41  1  0  0  0  0
 40101  1  0  0  0  0
 41 42  2  3  0  0  0
 41102  1  0  0  0  0
 42 43  1  0  0  0  0
 42103  1  0  0  0  0
 43 44  2  3  0  0  0
 43104  1  0  0  0  0
 44 45  1  0  0  0  0
 44105  1  0  0  0  0
 45 46  2  3  0  0  0
 45106  1  0  0  0  0
 46 47  1  0  0  0  0
 46107  1  0  0  0  0
 47 48  1  0  0  0  0
 47 56  2  0  0  0  0
 48 49  2  0  0  0  0
 48108  1  0  0  0  0
 49 50  1  0  0  0  0
 49109  1  0  0  0  0
 50 51  2  0  0  0  0
 50110  1  0  0  0  0
 51 52  1  0  0  0  0
 51111  1  0  0  0  0
 52 53  2  0  0  0  0
 52112  1  0  0  0  0
 53 54  1  0  0  0  0
 53113  1  0  0  0  0
 54 55  2  0  0  0  0
 54114  1  0  0  0  0
 55 56  1  0  0  0  0
 55115  1  0  0  0  0
 56 57  1  0  0  0  0
 57 58  1  0  0  0  0
M  END
$$$$
