
 OpenBabel04232216393D

 70 70  0  0  0  0  0  0  0  0999 V2000
   13.5154    3.5448    3.8937 C   0  0  0  0  0  0  0  0  0  0  0  0
   14.5927    3.3880    5.4630 C   0  0  0  0  0  0  0  0  0  0  0  0
   12.4522    2.8740    4.6794 C   0  0  0  0  0  0  0  0  0  0  0  0
   10.6518    2.4502    3.7533 C   0  0  0  0  0  0  0  0  0  0  0  0
    8.6652    2.3068    3.1831 C   0  0  0  0  0  0  0  0  0  0  0  0
    7.0331    1.5221    3.4717 C   0  0  0  0  0  0  0  0  0  0  0  0
    7.3184    1.9349    4.7878 C   0  0  0  0  0  0  0  0  0  0  0  0
    8.6373    1.3706    5.0988 C   0  0  0  0  0  0  0  0  0  0  0  0
    9.6720    2.4597    5.8552 C   0  0  0  0  0  0  0  0  0  0  0  0
   11.1181    2.4926    6.2317 C   0  0  0  0  0  0  0  0  0  0  0  0
   11.7815    4.2389    6.2459 C   0  0  0  0  0  0  0  0  0  0  0  0
   12.7880    5.1605    5.5590 C   0  0  0  0  0  0  0  0  0  0  0  0
   13.7951    5.7202    6.4540 C   0  0  0  0  0  0  0  0  0  0  0  0
   15.1147    6.0052    6.2191 C   0  0  0  0  0  0  0  0  0  0  0  0
   15.8480    6.0759    7.4566 C   0  0  0  0  0  0  0  0  0  0  0  0
   17.1705    6.0006    7.3847 C   0  0  0  0  0  0  0  0  0  0  0  0
   17.8411    6.7648    8.3382 C   0  0  0  0  0  0  0  0  0  0  0  0
   19.0716    7.2146    8.0486 C   0  0  0  0  0  0  0  0  0  0  0  0
   19.8045    7.7352    9.2371 C   0  0  0  0  0  0  0  0  0  0  0  0
   21.1556    7.9370    9.2170 C   0  0  0  0  0  0  0  0  0  0  0  0
   21.8092    8.4403   10.4799 C   0  0  0  0  0  0  0  0  0  0  0  0
   22.8223    8.8853   11.1741 C   0  0  0  0  0  0  0  0  0  0  0  0
   24.0932    9.2752   11.7155 C   0  0  0  0  0  0  0  0  0  0  0  0
   25.2193    9.6335   11.0801 C   0  0  0  0  0  0  0  0  0  0  0  0
   25.9172   10.4693   12.0110 C   0  0  0  0  0  0  0  0  0  0  0  0
   27.2205   10.4893   11.7361 C   0  0  0  0  0  0  0  0  0  0  0  0
   27.9138   10.2889   12.9809 C   0  0  0  0  0  0  0  0  0  0  0  0
   27.8288    8.8600   12.4969 C   0  0  0  0  0  0  0  0  0  0  0  0
   25.9859    7.8039   11.9812 C   0  0  0  0  0  0  0  0  0  0  0  0
   24.7733    6.8270   10.9481 C   0  0  0  0  0  0  0  0  0  0  0  0
   22.9569    6.0042    9.8057 C   0  0  0  0  0  0  0  0  0  0  0  0
   21.1100    5.3724    9.1383 C   0  0  0  0  0  0  0  0  0  0  0  0
   18.8959    4.5386    7.9580 C   0  0  0  0  0  0  0  0  0  0  0  0
   16.8265    3.7901    6.7897 C   0  0  0  0  0  0  0  0  0  0  0  0
   12.2994    3.3577    2.9986 H   0  0  0  0  0  0  0  0  0  0  0  0
   12.1181    4.0411    3.4250 H   0  0  0  0  0  0  0  0  0  0  0  0
   11.0605    3.3291    4.5199 H   0  0  0  0  0  0  0  0  0  0  0  0
    9.7483    1.9483    2.7261 H   0  0  0  0  0  0  0  0  0  0  0  0
    7.1708    2.5945    2.7118 H   0  0  0  0  0  0  0  0  0  0  0  0
    5.5322    1.4528    3.1833 H   0  0  0  0  0  0  0  0  0  0  0  0
    6.9297    3.1039    4.4759 H   0  0  0  0  0  0  0  0  0  0  0  0
    9.2475    0.7249    4.0820 H   0  0  0  0  0  0  0  0  0  0  0  0
    9.2185    3.4927    5.3860 H   0  0  0  0  0  0  0  0  0  0  0  0
   12.0298    1.5652    5.6902 H   0  0  0  0  0  0  0  0  0  0  0  0
   10.8318    4.7321    6.4016 H   0  0  0  0  0  0  0  0  0  0  0  0
   13.6849    5.1372    4.6846 H   0  0  0  0  0  0  0  0  0  0  0  0
   13.3764    5.4648    7.4260 H   0  0  0  0  0  0  0  0  0  0  0  0
   15.8303    5.6516    5.2515 H   0  0  0  0  0  0  0  0  0  0  0  0
   15.2758    6.2819    8.3522 H   0  0  0  0  0  0  0  0  0  0  0  0
   17.7750    5.4808    6.5838 H   0  0  0  0  0  0  0  0  0  0  0  0
   17.3543    6.8768    9.2914 H   0  0  0  0  0  0  0  0  0  0  0  0
   19.6247    6.6507    7.1233 H   0  0  0  0  0  0  0  0  0  0  0  0
   19.3075    7.7867   10.2368 H   0  0  0  0  0  0  0  0  0  0  0  0
   21.6392    7.3410    8.3485 H   0  0  0  0  0  0  0  0  0  0  0  0
   21.1209    8.4705   11.3677 H   0  0  0  0  0  0  0  0  0  0  0  0
   23.6268    8.6093   10.3571 H   0  0  0  0  0  0  0  0  0  0  0  0
   23.8277    9.5709   12.7818 H   0  0  0  0  0  0  0  0  0  0  0  0
   25.9421    8.8193   10.3960 H   0  0  0  0  0  0  0  0  0  0  0  0
   25.5566   10.4405   13.0862 H   0  0  0  0  0  0  0  0  0  0  0  0
   27.5930    9.5748   10.8593 H   0  0  0  0  0  0  0  0  0  0  0  0
   27.6957   10.8164   14.0330 H   0  0  0  0  0  0  0  0  0  0  0  0
   28.9424    9.3643   11.7470 H   0  0  0  0  0  0  0  0  0  0  0  0
   27.1324    8.0762   13.0208 H   0  0  0  0  0  0  0  0  0  0  0  0
   26.0182    6.8445   11.7279 H   0  0  0  0  0  0  0  0  0  0  0  0
   23.5135    6.5352   11.0618 H   0  0  0  0  0  0  0  0  0  0  0  0
   21.4554    5.9800   10.2480 H   0  0  0  0  0  0  0  0  0  0  0  0
   19.6783    5.5052    8.0760 H   0  0  0  0  0  0  0  0  0  0  0  0
   19.0592    4.8485    9.2407 H   0  0  0  0  0  0  0  0  0  0  0  0
   15.7391    3.2424    7.2593 H   0  0  0  0  0  0  0  0  0  0  0  0
   15.9419    4.3855    6.0695 H   0  0  0  0  0  0  0  0  0  0  0  0
  1  2  2  0  0  0  0
  1 35  1  0  0  0  0
  1 36  1  0  0  0  0
  2  3  1  0  0  0  0
  2 34  1  0  0  0  0
  3  4  2  3  0  0  0
  3 37  1  0  0  0  0
  4  5  1  0  0  0  0
  4 38  1  0  0  0  0
  5  6  2  3  0  0  0
  5 39  1  0  0  0  0
  6  7  1  0  0  0  0
  6 40  1  0  0  0  0
  7  8  2  3  0  0  0
  7 41  1  0  0  0  0
  8  9  1  0  0  0  0
  8 42  1  0  0  0  0
  9 10  2  3  0  0  0
  9 43  1  0  0  0  0
 10 11  1  0  0  0  0
 10 44  1  0  0  0  0
 11 12  2  3  0  0  0
 11 45  1  0  0  0  0
 12 13  1  0  0  0  0
 12 46  1  0  0  0  0
 13 14  2  3  0  0  0
 13 47  1  0  0  0  0
 14 15  1  0  0  0  0
 14 48  1  0  0  0  0
 15 16  2  3  0  0  0
 15 49  1  0  0  0  0
 16 17  1  0  0  0  0
 16 50  1  0  0  0  0
 17 18  2  3  0  0  0
 17 51  1  0  0  0  0
 18 19  1  0  0  0  0
 18 52  1  0  0  0  0
 19 20  2  3  0  0  0
 19 53  1  0  0  0  0
 20 21  1  0  0  0  0
 20 54  1  0  0  0  0
 21 22  2  3  0  0  0
 21 55  1  0  0  0  0
 22 23  1  0  0  0  0
 22 56  1  0  0  0  0
 23 24  2  3  0  0  0
 23 57  1  0  0  0  0
 24 25  1  0  0  0  0
 24 58  1  0  0  0  0
 25 26  2  3  0  0  0
 25 59  1  0  0  0  0
 26 27  1  0  0  0  0
 26 60  1  0  0  0  0
 27 28  2  3  0  0  0
 27 61  1  0  0  0  0
 28 29  1  0  0  0  0
 28 62  1  0  0  0  0
 29 30  2  3  0  0  0
 29 63  1  0  0  0  0
 30 31  1  0  0  0  0
 30 64  1  0  0  0  0
 31 32  2  3  0  0  0
 31 65  1  0  0  0  0
 32 33  1  0  0  0  0
 32 66  1  0  0  0  0
 33 34  1  0  0  0  0
 33 67  1  0  0  0  0
 33 68  1  0  0  0  0
 34 69  1  0  0  0  0
 34 70  1  0  0  0  0
M  END
$$$$
