
 OpenBabel04232217023D

 90 89  0  0  0  0  0  0  0  0999 V2000
   13.4761    2.9336   10.6857 S   0  0  0  0  0  0  0  0  0  0  0  0
   12.8463    1.2335   10.9145 C   0  0  0  0  0  0  0  0  0  0  0  0
   13.4208    0.1942    9.5164 S   0  0  0  0  0  0  0  0  0  0  0  0
   12.6693   -1.6860    9.9055 S   0  0  0  0  0  0  0  0  0  0  0  0
   10.8547   -1.4912    9.7984 C   0  0  0  0  0  0  0  0  0  0  0  0
   10.3135   -0.9253    8.4746 C   0  0  0  0  0  0  0  0  0  0  0  0
   10.6188   -1.7583    7.2592 N   0  0  0  0  0  0  0  0  0  0  0  0
    9.9590   -3.3004    7.2247 S   0  0  0  0  0  0  0  0  0  0  0  0
   10.5972   -4.0104    5.4012 S   0  0  0  0  0  0  0  0  0  0  0  0
   12.6647   -4.0525    5.4042 S   0  0  0  0  0  0  0  0  0  0  0  0
   13.3382   -5.2772    6.9361 S   0  0  0  0  0  0  0  0  0  0  0  0
   15.4388   -5.2302    6.9169 S   0  0  0  0  0  0  0  0  0  0  0  0
   16.1369   -6.4243    8.5054 S   0  0  0  0  0  0  0  0  0  0  0  0
   18.2459   -6.4175    8.4942 S   0  0  0  0  0  0  0  0  0  0  0  0
   18.9368   -7.6149   10.0889 S   0  0  0  0  0  0  0  0  0  0  0  0
   21.0467   -7.6074   10.0789 S   0  0  0  0  0  0  0  0  0  0  0  0
   21.7374   -8.8044   11.6728 S   0  0  0  0  0  0  0  0  0  0  0  0
   23.8469   -8.7964   11.6622 S   0  0  0  0  0  0  0  0  0  0  0  0
   24.5376   -9.9933   13.2561 S   0  0  0  0  0  0  0  0  0  0  0  0
   26.6470   -9.9853   13.2455 S   0  0  0  0  0  0  0  0  0  0  0  0
   27.3376  -11.1822   14.8393 S   0  0  0  0  0  0  0  0  0  0  0  0
   29.4469  -11.1742   14.8287 S   0  0  0  0  0  0  0  0  0  0  0  0
   30.1376  -12.3711   16.4225 S   0  0  0  0  0  0  0  0  0  0  0  0
   32.2469  -12.3631   16.4119 S   0  0  0  0  0  0  0  0  0  0  0  0
   32.9376  -13.5600   18.0057 S   0  0  0  0  0  0  0  0  0  0  0  0
   35.0469  -13.5520   17.9951 S   0  0  0  0  0  0  0  0  0  0  0  0
   35.7376  -14.7488   19.5889 S   0  0  0  0  0  0  0  0  0  0  0  0
   37.8469  -14.7409   19.5783 S   0  0  0  0  0  0  0  0  0  0  0  0
   38.5375  -15.9377   21.1721 S   0  0  0  0  0  0  0  0  0  0  0  0
   40.6469  -15.9298   21.1615 S   0  0  0  0  0  0  0  0  0  0  0  0
   41.3375  -17.1266   22.7553 S   0  0  0  0  0  0  0  0  0  0  0  0
   43.4469  -17.1187   22.7447 S   0  0  0  0  0  0  0  0  0  0  0  0
   44.1375  -18.3155   24.3385 S   0  0  0  0  0  0  0  0  0  0  0  0
   46.2469  -18.3076   24.3280 S   0  0  0  0  0  0  0  0  0  0  0  0
   46.9375  -19.5044   25.9218 S   0  0  0  0  0  0  0  0  0  0  0  0
   49.0469  -19.4964   25.9112 S   0  0  0  0  0  0  0  0  0  0  0  0
   49.7375  -20.6933   27.5050 S   0  0  0  0  0  0  0  0  0  0  0  0
   51.8469  -20.6853   27.4944 S   0  0  0  0  0  0  0  0  0  0  0  0
   52.5375  -21.8822   29.0882 S   0  0  0  0  0  0  0  0  0  0  0  0
   54.6469  -21.8742   29.0776 S   0  0  0  0  0  0  0  0  0  0  0  0
   55.3375  -23.0711   30.6714 S   0  0  0  0  0  0  0  0  0  0  0  0
   57.4469  -23.0631   30.6608 S   0  0  0  0  0  0  0  0  0  0  0  0
   58.1375  -24.2599   32.2546 S   0  0  0  0  0  0  0  0  0  0  0  0
   60.2469  -24.2520   32.2440 S   0  0  0  0  0  0  0  0  0  0  0  0
   60.9375  -25.4488   33.8378 S   0  0  0  0  0  0  0  0  0  0  0  0
   63.0469  -25.4409   33.8272 S   0  0  0  0  0  0  0  0  0  0  0  0
   63.7375  -26.6377   35.4210 S   0  0  0  0  0  0  0  0  0  0  0  0
   65.8468  -26.6298   35.4104 S   0  0  0  0  0  0  0  0  0  0  0  0
   66.5375  -27.8266   37.0042 S   0  0  0  0  0  0  0  0  0  0  0  0
   68.6468  -27.8187   36.9936 S   0  0  0  0  0  0  0  0  0  0  0  0
   69.3375  -29.0155   38.5874 S   0  0  0  0  0  0  0  0  0  0  0  0
   71.4468  -29.0075   38.5768 S   0  0  0  0  0  0  0  0  0  0  0  0
   72.1375  -30.2044   40.1707 S   0  0  0  0  0  0  0  0  0  0  0  0
   74.2468  -30.1964   40.1601 S   0  0  0  0  0  0  0  0  0  0  0  0
   74.9374  -31.3933   41.7539 S   0  0  0  0  0  0  0  0  0  0  0  0
   77.0468  -31.3853   41.7433 S   0  0  0  0  0  0  0  0  0  0  0  0
   77.7374  -32.5822   43.3371 S   0  0  0  0  0  0  0  0  0  0  0  0
   79.8468  -32.5742   43.3265 S   0  0  0  0  0  0  0  0  0  0  0  0
   80.5374  -33.7711   44.9203 S   0  0  0  0  0  0  0  0  0  0  0  0
   82.6468  -33.7631   44.9097 S   0  0  0  0  0  0  0  0  0  0  0  0
   83.3374  -34.9599   46.5035 S   0  0  0  0  0  0  0  0  0  0  0  0
   85.4468  -34.9520   46.4929 S   0  0  0  0  0  0  0  0  0  0  0  0
   86.1374  -36.1488   48.0867 S   0  0  0  0  0  0  0  0  0  0  0  0
   88.2468  -36.1409   48.0761 S   0  0  0  0  0  0  0  0  0  0  0  0
   88.9374  -37.3377   49.6699 S   0  0  0  0  0  0  0  0  0  0  0  0
   91.0468  -37.3298   49.6593 S   0  0  0  0  0  0  0  0  0  0  0  0
   91.7374  -38.5266   51.2531 S   0  0  0  0  0  0  0  0  0  0  0  0
   93.8468  -38.5186   51.2425 S   0  0  0  0  0  0  0  0  0  0  0  0
   94.5374  -39.7155   52.8363 S   0  0  0  0  0  0  0  0  0  0  0  0
   96.6468  -39.7075   52.8257 S   0  0  0  0  0  0  0  0  0  0  0  0
   97.3374  -40.9044   54.4195 S   0  0  0  0  0  0  0  0  0  0  0  0
   99.4467  -40.8964   54.4089 S   0  0  0  0  0  0  0  0  0  0  0  0
  100.1372  -42.0932   56.0027 S   0  0  0  0  0  0  0  0  0  0  0  0
  102.2465  -42.0853   55.9922 S   0  0  0  0  0  0  0  0  0  0  0  0
  102.9356  -43.2814   57.5853 S   0  0  0  0  0  0  0  0  0  0  0  0
  105.0413  -43.2729   57.5729 S   0  0  0  0  0  0  0  0  0  0  0  0
  105.7260  -44.4659   59.1623 S   0  0  0  0  0  0  0  0  0  0  0  0
  107.8188  -44.4262   59.1482 S   0  0  0  0  0  0  0  0  0  0  0  0
  108.4993  -45.6668   60.6757 S   0  0  0  0  0  0  0  0  0  0  0  0
  110.5738  -45.5887   60.6750 S   0  0  0  0  0  0  0  0  0  0  0  0
  111.1827  -46.4369   58.8969 S   0  0  0  0  0  0  0  0  0  0  0  0
   12.9276    3.5094   11.7660 H   0  0  0  0  0  0  0  0  0  0  0  0
   11.7421    1.2768   10.9037 H   0  0  0  0  0  0  0  0  0  0  0  0
   13.1880    0.8429   11.8640 H   0  0  0  0  0  0  0  0  0  0  0  0
   10.5557   -0.8266   10.6242 H   0  0  0  0  0  0  0  0  0  0  0  0
   10.3839   -2.4468   10.0176 H   0  0  0  0  0  0  0  0  0  0  0  0
   10.7532    0.0797    8.3209 H   0  0  0  0  0  0  0  0  0  0  0  0
    9.2611   -0.7821    8.5626 H   0  0  0  0  0  0  0  0  0  0  0  0
   11.6176   -1.7943    7.1203 H   0  0  0  0  0  0  0  0  0  0  0  0
  112.5254  -46.3617   58.9849 H   0  0  0  0  0  0  0  0  0  0  0  0
  1  2  1  0  0  0  0
  1 82  1  0  0  0  0
  2  3  1  0  0  0  0
  2 83  1  0  0  0  0
  2 84  1  0  0  0  0
  3  4  1  0  0  0  0
  4  5  1  0  0  0  0
  5  6  1  0  0  0  0
  5 85  1  0  0  0  0
  5 86  1  0  0  0  0
  6  7  1  0  0  0  0
  6 87  1  0  0  0  0
  6 88  1  0  0  0  0
  7  8  1  0  0  0  0
  7 89  1  0  0  0  0
  8  9  1  0  0  0  0
  9 10  1  0  0  0  0
 10 11  1  0  0  0  0
 11 12  1  0  0  0  0
 12 13  1  0  0  0  0
 13 14  1  0  0  0  0
 14 15  1  0  0  0  0
 15 16  1  0  0  0  0
 16 17  1  0  0  0  0
 17 18  1  0  0  0  0
 18 19  1  0  0  0  0
 19 20  1  0  0  0  0
 20 21  1  0  0  0  0
 21 22  1  0  0  0  0
 22 23  1  0  0  0  0
 23 24  1  0  0  0  0
 24 25  1  0  0  0  0
 25 26  1  0  0  0  0
 26 27  1  0  0  0  0
 27 28  1  0  0  0  0
 28 29  1  0  0  0  0
 29 30  1  0  0  0  0
 30 31  1  0  0  0  0
 31 32  1  0  0  0  0
 32 33  1  0  0  0  0
 33 34  1  0  0  0  0
 34 35  1  0  0  0  0
 35 36  1  0  0  0  0
 36 37  1  0  0  0  0
 37 38  1  0  0  0  0
 38 39  1  0  0  0  0
 39 40  1  0  0  0  0
 40 41  1  0  0  0  0
 41 42  1  0  0  0  0
 42 43  1  0  0  0  0
 43 44  1  0  0  0  0
 44 45  1  0  0  0  0
 45 46  1  0  0  0  0
 46 47  1  0  0  0  0
 47 48  1  0  0  0  0
 48 49  1  0  0  0  0
 49 50  1  0  0  0  0
 50 51  1  0  0  0  0
 51 52  1  0  0  0  0
 52 53  1  0  0  0  0
 53 54  1  0  0  0  0
 54 55  1  0  0  0  0
 55 56  1  0  0  0  0
 56 57  1  0  0  0  0
 57 58  1  0  0  0  0
 58 59  1  0  0  0  0
 59 60  1  0  0  0  0
 60 61  1  0  0  0  0
 61 62  1  0  0  0  0
 62 63  1  0  0  0  0
 63 64  1  0  0  0  0
 64 65  1  0  0  0  0
 65 66  1  0  0  0  0
 66 67  1  0  0  0  0
 67 68  1  0  0  0  0
 68 69  1  0  0  0  0
 69 70  1  0  0  0  0
 70 71  1  0  0  0  0
 71 72  1  0  0  0  0
 72 73  1  0  0  0  0
 73 74  1  0  0  0  0
 74 75  1  0  0  0  0
 75 76  1  0  0  0  0
 76 77  1  0  0  0  0
 77 78  1  0  0  0  0
 78 79  1  0  0  0  0
 79 80  1  0  0  0  0
 80 81  1  0  0  0  0
 81 90  1  0  0  0  0
M  END
$$$$
