
 OpenBabel04232217013D

201200  0  0  0  0  0  0  0  0999 V2000
    0.9778   -0.0455    0.0082 O   0  0  0  0  0  0  0  0  0  0  0  0
    2.3947   -0.0248   -0.0115 C   0  0  0  0  0  0  0  0  0  0  0  0
    2.9059   -0.9857    1.0413 C   0  0  0  0  0  0  0  0  0  0  0  0
    4.4215   -0.9957    1.0530 C   0  0  0  0  0  0  0  0  0  0  0  0
    4.9208   -1.9587    2.1080 C   0  0  0  0  0  0  0  0  0  0  0  0
    6.4274   -1.9552    2.1046 C   0  0  0  0  0  0  0  0  0  0  0  0
    6.9091   -2.9165    3.1549 C   0  0  0  0  0  0  0  0  0  0  0  0
    8.3976   -2.8996    3.1399 C   0  0  0  0  0  0  0  0  0  0  0  0
    8.7787   -3.8138    4.1393 O   0  0  0  0  0  0  0  0  0  0  0  0
   10.2016   -3.7414    4.0699 O   0  0  0  0  0  0  0  0  0  0  0  0
   10.6174   -4.6379    5.0364 C   0  0  0  0  0  0  0  0  0  0  0  0
   12.0160   -4.5627    4.9502 O   0  0  0  0  0  0  0  0  0  0  0  0
   12.4044   -5.4741    5.9389 O   0  0  0  0  0  0  0  0  0  0  0  0
   13.8000   -5.4602    5.9581 O   0  0  0  0  0  0  0  0  0  0  0  0
   14.2154   -6.3714    6.9302 O   0  0  0  0  0  0  0  0  0  0  0  0
   15.6105   -6.3705    6.9122 O   0  0  0  0  0  0  0  0  0  0  0  0
   16.0341   -7.2583    7.8958 O   0  0  0  0  0  0  0  0  0  0  0  0
   17.4270   -7.2305    7.8741 O   0  0  0  0  0  0  0  0  0  0  0  0
   17.8607   -8.1170    8.8476 O   0  0  0  0  0  0  0  0  0  0  0  0
   19.2527   -8.0922    8.8145 O   0  0  0  0  0  0  0  0  0  0  0  0
   19.6860   -9.0045    9.7712 O   0  0  0  0  0  0  0  0  0  0  0  0
   21.0716   -8.9602    9.7648 O   0  0  0  0  0  0  0  0  0  0  0  0
   21.5006   -9.8555   10.7429 O   0  0  0  0  0  0  0  0  0  0  0  0
   22.8912   -9.8399   10.7203 O   0  0  0  0  0  0  0  0  0  0  0  0
   23.3182  -10.7350   11.6926 O   0  0  0  0  0  0  0  0  0  0  0  0
   24.7084  -10.7030   11.6682 O   0  0  0  0  0  0  0  0  0  0  0  0
   25.1528  -11.5950   12.6357 O   0  0  0  0  0  0  0  0  0  0  0  0
   26.5457  -11.5617   12.6031 O   0  0  0  0  0  0  0  0  0  0  0  0
   27.0024  -12.4572   13.5769 O   0  0  0  0  0  0  0  0  0  0  0  0
   28.3999  -12.4185   13.5413 O   0  0  0  0  0  0  0  0  0  0  0  0
   28.7212  -13.3363   14.5374 C   0  0  0  0  0  0  0  0  0  0  0  0
   30.2028  -13.3082   14.5127 C   0  0  0  0  0  0  0  0  0  0  0  0
   30.6698  -14.2669   15.5541 C   0  0  0  0  0  0  0  0  0  0  0  0
   32.1658  -14.2396   15.5274 C   0  0  0  0  0  0  0  0  0  0  0  0
   32.6522  -15.2019   16.5725 C   0  0  0  0  0  0  0  0  0  0  0  0
   34.1561  -15.1894   16.5588 C   0  0  0  0  0  0  0  0  0  0  0  0
   34.6495  -16.1554   17.6053 C   0  0  0  0  0  0  0  0  0  0  0  0
   36.1590  -16.1529   17.5998 C   0  0  0  0  0  0  0  0  0  0  0  0
   36.6600  -17.1190   18.6489 C   0  0  0  0  0  0  0  0  0  0  0  0
   38.1731  -17.1190   18.6487 C   0  0  0  0  0  0  0  0  0  0  0  0
   38.6790  -18.0870   19.6975 C   0  0  0  0  0  0  0  0  0  0  0  0
   40.1941  -18.0886   19.6993 C   0  0  0  0  0  0  0  0  0  0  0  0
   40.7024  -19.0571   20.7484 C   0  0  0  0  0  0  0  0  0  0  0  0
   42.2184  -19.0597   20.7512 C   0  0  0  0  0  0  0  0  0  0  0  0
   42.7278  -20.0284   21.8005 C   0  0  0  0  0  0  0  0  0  0  0  0
   44.2441  -20.0315   21.8038 C   0  0  0  0  0  0  0  0  0  0  0  0
   44.7539  -21.0003   22.8533 C   0  0  0  0  0  0  0  0  0  0  0  0
   46.2704  -21.0035   22.8567 C   0  0  0  0  0  0  0  0  0  0  0  0
   46.7803  -21.9723   23.9062 C   0  0  0  0  0  0  0  0  0  0  0  0
   48.2969  -21.9770   23.9083 C   0  0  0  0  0  0  0  0  0  0  0  0
   48.8069  -22.9460   24.9576 C   0  0  0  0  0  0  0  0  0  0  0  0
   50.3235  -22.9521   24.9585 C   0  0  0  0  0  0  0  0  0  0  0  0
   50.8336  -23.9223   26.0067 C   0  0  0  0  0  0  0  0  0  0  0  0
   52.3502  -23.9270   26.0088 C   0  0  0  0  0  0  0  0  0  0  0  0
   52.8602  -24.8960   27.0582 C   0  0  0  0  0  0  0  0  0  0  0  0
   54.3768  -24.8993   27.0616 C   0  0  0  0  0  0  0  0  0  0  0  0
   54.8868  -25.8695   28.1098 C   0  0  0  0  0  0  0  0  0  0  0  0
   56.4035  -25.8742   28.1119 C   0  0  0  0  0  0  0  0  0  0  0  0
   56.9135  -26.8445   29.1600 C   0  0  0  0  0  0  0  0  0  0  0  0
   58.4301  -26.8506   29.1608 C   0  0  0  0  0  0  0  0  0  0  0  0
   58.9401  -27.8210   30.2089 C   0  0  0  0  0  0  0  0  0  0  0  0
   60.4567  -27.8272   30.2096 C   0  0  0  0  0  0  0  0  0  0  0  0
   60.9667  -28.7976   31.2577 C   0  0  0  0  0  0  0  0  0  0  0  0
   62.4833  -28.8038   31.2584 C   0  0  0  0  0  0  0  0  0  0  0  0
   62.9934  -29.7741   32.3065 C   0  0  0  0  0  0  0  0  0  0  0  0
   64.5100  -29.7803   32.3073 C   0  0  0  0  0  0  0  0  0  0  0  0
   65.0201  -30.7507   33.3554 C   0  0  0  0  0  0  0  0  0  0  0  0
   66.5368  -30.7569   33.3563 C   0  0  0  0  0  0  0  0  0  0  0  0
   67.0471  -31.7273   34.4045 C   0  0  0  0  0  0  0  0  0  0  0  0
   68.5639  -31.7323   34.4068 C   0  0  0  0  0  0  0  0  0  0  0  0
   69.0745  -32.7027   35.4550 C   0  0  0  0  0  0  0  0  0  0  0  0
   70.5917  -32.7080   35.4577 C   0  0  0  0  0  0  0  0  0  0  0  0
   71.1031  -33.6786   36.5061 C   0  0  0  0  0  0  0  0  0  0  0  0
   72.6210  -33.6844   36.5096 C   0  0  0  0  0  0  0  0  0  0  0  0
   73.1345  -34.6551   37.5581 C   0  0  0  0  0  0  0  0  0  0  0  0
   74.6537  -34.6603   37.5637 C   0  0  0  0  0  0  0  0  0  0  0  0
   75.1707  -35.6313   38.6125 C   0  0  0  0  0  0  0  0  0  0  0  0
   76.6923  -35.6394   38.6211 C   0  0  0  0  0  0  0  0  0  0  0  0
   77.2105  -36.6134   39.6703 C   0  0  0  0  0  0  0  0  0  0  0  0
   78.7340  -36.6317   39.6873 C   0  0  0  0  0  0  0  0  0  0  0  0
   79.2487  -37.6031   40.7334 C   0  0  0  0  0  0  0  0  0  0  0  0
    0.6794    0.5776   -0.6748 H   0  0  0  0  0  0  0  0  0  0  0  0
    2.7387    0.9936    0.1958 H   0  0  0  0  0  0  0  0  0  0  0  0
    2.7410   -0.3224   -1.0065 H   0  0  0  0  0  0  0  0  0  0  0  0
    2.5207   -1.9946    0.8471 H   0  0  0  0  0  0  0  0  0  0  0  0
    2.5202   -0.7007    2.0282 H   0  0  0  0  0  0  0  0  0  0  0  0
    4.8069    0.0102    1.2608 H   0  0  0  0  0  0  0  0  0  0  0  0
    4.8073   -1.2940    0.0703 H   0  0  0  0  0  0  0  0  0  0  0  0
    4.5522   -2.9725    1.9077 H   0  0  0  0  0  0  0  0  0  0  0  0
    4.5518   -1.6674    3.0993 H   0  0  0  0  0  0  0  0  0  0  0  0
    6.8147   -0.9503    2.3150 H   0  0  0  0  0  0  0  0  0  0  0  0
    6.8153   -2.2533    1.1224 H   0  0  0  0  0  0  0  0  0  0  0  0
    6.5493   -3.9366    2.9682 H   0  0  0  0  0  0  0  0  0  0  0  0
    6.5470   -2.6420    4.1542 H   0  0  0  0  0  0  0  0  0  0  0  0
    8.8008   -1.9091    3.3814 H   0  0  0  0  0  0  0  0  0  0  0  0
    8.8038   -3.2268    2.1752 H   0  0  0  0  0  0  0  0  0  0  0  0
   10.2835   -5.6492    4.8115 H   0  0  0  0  0  0  0  0  0  0  0  0
   10.2872   -4.3311    6.0300 H   0  0  0  0  0  0  0  0  0  0  0  0
   28.3164  -14.3236   14.2855 H   0  0  0  0  0  0  0  0  0  0  0  0
   28.3116  -13.0074   15.4998 H   0  0  0  0  0  0  0  0  0  0  0  0
   30.5612  -12.2877   14.7024 H   0  0  0  0  0  0  0  0  0  0  0  0
   30.5657  -13.5784   13.5120 H   0  0  0  0  0  0  0  0  0  0  0  0
   30.2887  -15.2737   15.3400 H   0  0  0  0  0  0  0  0  0  0  0  0
   30.2861  -13.9722   16.5393 H   0  0  0  0  0  0  0  0  0  0  0  0
   32.5306  -13.2248   15.7315 H   0  0  0  0  0  0  0  0  0  0  0  0
   32.5327  -14.5251   14.5333 H   0  0  0  0  0  0  0  0  0  0  0  0
   32.2711  -16.2088   16.3611 H   0  0  0  0  0  0  0  0  0  0  0  0
   32.2710  -14.9085   17.5586 H   0  0  0  0  0  0  0  0  0  0  0  0
   34.5251  -14.1769   16.7647 H   0  0  0  0  0  0  0  0  0  0  0  0
   34.5250  -15.4757   15.5660 H   0  0  0  0  0  0  0  0  0  0  0  0
   34.2685  -17.1625   17.3949 H   0  0  0  0  0  0  0  0  0  0  0  0
   34.2705  -15.8637   18.5927 H   0  0  0  0  0  0  0  0  0  0  0  0
   36.5323  -15.1419   17.8050 H   0  0  0  0  0  0  0  0  0  0  0  0
   36.5301  -16.4421   16.6088 H   0  0  0  0  0  0  0  0  0  0  0  0
   36.2816  -18.1274   18.4402 H   0  0  0  0  0  0  0  0  0  0  0  0
   36.2819  -16.8280   19.6368 H   0  0  0  0  0  0  0  0  0  0  0  0
   38.5470  -16.1087   18.8564 H   0  0  0  0  0  0  0  0  0  0  0  0
   38.5470  -17.4067   17.6584 H   0  0  0  0  0  0  0  0  0  0  0  0
   38.3021  -19.0957   19.4883 H   0  0  0  0  0  0  0  0  0  0  0  0
   38.3020  -17.7979   20.6863 H   0  0  0  0  0  0  0  0  0  0  0  0
   40.5689  -17.0789   19.9074 H   0  0  0  0  0  0  0  0  0  0  0  0
   40.5690  -18.3766   18.7094 H   0  0  0  0  0  0  0  0  0  0  0  0
   40.3261  -20.0662   20.5395 H   0  0  0  0  0  0  0  0  0  0  0  0
   40.3261  -18.7685   21.7376 H   0  0  0  0  0  0  0  0  0  0  0  0
   42.5938  -18.0502   20.9595 H   0  0  0  0  0  0  0  0  0  0  0  0
   42.5938  -19.3479   19.7615 H   0  0  0  0  0  0  0  0  0  0  0  0
   42.3517  -21.0376   21.5918 H   0  0  0  0  0  0  0  0  0  0  0  0
   42.3517  -19.7400   22.7898 H   0  0  0  0  0  0  0  0  0  0  0  0
   44.6198  -19.0221   22.0123 H   0  0  0  0  0  0  0  0  0  0  0  0
   44.6198  -20.3197   20.8143 H   0  0  0  0  0  0  0  0  0  0  0  0
   44.3779  -22.0095   22.6447 H   0  0  0  0  0  0  0  0  0  0  0  0
   44.3780  -20.7119   23.8427 H   0  0  0  0  0  0  0  0  0  0  0  0
   46.6462  -19.9942   23.0651 H   0  0  0  0  0  0  0  0  0  0  0  0
   46.6461  -21.2919   21.8672 H   0  0  0  0  0  0  0  0  0  0  0  0
   46.4034  -22.9814   23.6985 H   0  0  0  0  0  0  0  0  0  0  0  0
   46.4056  -21.6832   24.8958 H   0  0  0  0  0  0  0  0  0  0  0  0
   48.6740  -20.9680   24.1160 H   0  0  0  0  0  0  0  0  0  0  0  0
   48.6714  -22.2661   22.9186 H   0  0  0  0  0  0  0  0  0  0  0  0
   48.4289  -23.9548   24.7506 H   0  0  0  0  0  0  0  0  0  0  0  0
   48.4334  -22.6562   25.9475 H   0  0  0  0  0  0  0  0  0  0  0  0
   50.7015  -21.9435   25.1667 H   0  0  0  0  0  0  0  0  0  0  0  0
   50.6972  -23.2407   23.9683 H   0  0  0  0  0  0  0  0  0  0  0  0
   50.4566  -24.9311   25.7977 H   0  0  0  0  0  0  0  0  0  0  0  0
   50.4589  -23.6344   26.9967 H   0  0  0  0  0  0  0  0  0  0  0  0
   52.7271  -22.9180   26.2166 H   0  0  0  0  0  0  0  0  0  0  0  0
   52.7248  -24.2160   25.0191 H   0  0  0  0  0  0  0  0  0  0  0  0
   52.4842  -25.9052   26.8496 H   0  0  0  0  0  0  0  0  0  0  0  0
   52.4846  -24.6077   28.0477 H   0  0  0  0  0  0  0  0  0  0  0  0
   54.7527  -23.8902   27.2714 H   0  0  0  0  0  0  0  0  0  0  0  0
   54.7526  -25.1864   26.0717 H   0  0  0  0  0  0  0  0  0  0  0  0
   54.5100  -26.8783   27.9007 H   0  0  0  0  0  0  0  0  0  0  0  0
   54.5121  -25.5817   29.0998 H   0  0  0  0  0  0  0  0  0  0  0  0
   56.7805  -24.8654   28.3210 H   0  0  0  0  0  0  0  0  0  0  0  0
   56.7780  -26.1619   27.1218 H   0  0  0  0  0  0  0  0  0  0  0  0
   56.5355  -27.8531   28.9516 H   0  0  0  0  0  0  0  0  0  0  0  0
   56.5399  -26.5560   30.1503 H   0  0  0  0  0  0  0  0  0  0  0  0
   58.8082  -25.8422   29.3691 H   0  0  0  0  0  0  0  0  0  0  0  0
   58.8036  -27.1392   28.1705 H   0  0  0  0  0  0  0  0  0  0  0  0
   58.5620  -28.8295   30.0005 H   0  0  0  0  0  0  0  0  0  0  0  0
   58.5666  -27.5325   31.1992 H   0  0  0  0  0  0  0  0  0  0  0  0
   60.8349  -26.8187   30.4179 H   0  0  0  0  0  0  0  0  0  0  0  0
   60.8302  -28.1158   29.2193 H   0  0  0  0  0  0  0  0  0  0  0  0
   60.5886  -29.8061   31.0494 H   0  0  0  0  0  0  0  0  0  0  0  0
   60.5933  -28.5090   32.2480 H   0  0  0  0  0  0  0  0  0  0  0  0
   62.8615  -27.7953   31.4667 H   0  0  0  0  0  0  0  0  0  0  0  0
   62.8568  -29.0923   30.2681 H   0  0  0  0  0  0  0  0  0  0  0  0
   62.6152  -30.7826   32.0982 H   0  0  0  0  0  0  0  0  0  0  0  0
   62.6199  -29.4855   33.2968 H   0  0  0  0  0  0  0  0  0  0  0  0
   64.8881  -28.7718   32.5156 H   0  0  0  0  0  0  0  0  0  0  0  0
   64.8834  -30.0689   31.3170 H   0  0  0  0  0  0  0  0  0  0  0  0
   64.6419  -31.7592   33.1471 H   0  0  0  0  0  0  0  0  0  0  0  0
   64.6465  -30.4621   34.3457 H   0  0  0  0  0  0  0  0  0  0  0  0
   66.9147  -29.7483   33.5646 H   0  0  0  0  0  0  0  0  0  0  0  0
   66.9103  -31.0454   32.3660 H   0  0  0  0  0  0  0  0  0  0  0  0
   66.6699  -32.7360   34.1953 H   0  0  0  0  0  0  0  0  0  0  0  0
   66.6724  -31.4395   35.3945 H   0  0  0  0  0  0  0  0  0  0  0  0
   68.9407  -30.7234   34.6158 H   0  0  0  0  0  0  0  0  0  0  0  0
   68.9383  -32.0199   33.4166 H   0  0  0  0  0  0  0  0  0  0  0  0
   68.6973  -33.7113   35.2458 H   0  0  0  0  0  0  0  0  0  0  0  0
   68.6996  -32.4148   36.4449 H   0  0  0  0  0  0  0  0  0  0  0  0
   70.9682  -31.6990   35.6666 H   0  0  0  0  0  0  0  0  0  0  0  0
   70.9659  -32.9955   34.4674 H   0  0  0  0  0  0  0  0  0  0  0  0
   70.7256  -34.6871   36.2967 H   0  0  0  0  0  0  0  0  0  0  0  0
   70.7278  -33.3906   37.4959 H   0  0  0  0  0  0  0  0  0  0  0  0
   72.9969  -32.6751   36.7181 H   0  0  0  0  0  0  0  0  0  0  0  0
   72.9948  -33.9715   35.5190 H   0  0  0  0  0  0  0  0  0  0  0  0
   72.7576  -35.6636   37.3479 H   0  0  0  0  0  0  0  0  0  0  0  0
   72.7577  -34.3678   38.5475 H   0  0  0  0  0  0  0  0  0  0  0  0
   75.0277  -33.6504   37.7726 H   0  0  0  0  0  0  0  0  0  0  0  0
   75.0277  -34.9462   36.5729 H   0  0  0  0  0  0  0  0  0  0  0  0
   74.7929  -36.6394   38.4019 H   0  0  0  0  0  0  0  0  0  0  0  0
   74.7930  -35.3440   39.6015 H   0  0  0  0  0  0  0  0  0  0  0  0
   77.0661  -34.6298   38.8312 H   0  0  0  0  0  0  0  0  0  0  0  0
   77.0661  -35.9240   37.6299 H   0  0  0  0  0  0  0  0  0  0  0  0
   76.8287  -37.6197   39.4581 H   0  0  0  0  0  0  0  0  0  0  0  0
   76.8307  -36.3256   40.6584 H   0  0  0  0  0  0  0  0  0  0  0  0
   79.1166  -35.6270   39.9015 H   0  0  0  0  0  0  0  0  0  0  0  0
   79.1143  -36.9215   38.7008 H   0  0  0  0  0  0  0  0  0  0  0  0
   78.9018  -37.3188   41.7320 H   0  0  0  0  0  0  0  0  0  0  0  0
   80.3421  -37.6100   40.7387 H   0  0  0  0  0  0  0  0  0  0  0  0
   78.8995  -38.6196   40.5254 H   0  0  0  0  0  0  0  0  0  0  0  0
  1  2  1  0  0  0  0
  1 82  1  0  0  0  0
  2  3  1  0  0  0  0
  2 83  1  0  0  0  0
  2 84  1  0  0  0  0
  3  4  1  0  0  0  0
  3 85  1  0  0  0  0
  3 86  1  0  0  0  0
  4  5  1  0  0  0  0
  4 87  1  0  0  0  0
  4 88  1  0  0  0  0
  5  6  1  0  0  0  0
  5 89  1  0  0  0  0
  5 90  1  0  0  0  0
  6  7  1  0  0  0  0
  6 91  1  0  0  0  0
  6 92  1  0  0  0  0
  7  8  1  0  0  0  0
  7 93  1  0  0  0  0
  7 94  1  0  0  0  0
  8  9  1  0  0  0  0
  8 95  1  0  0  0  0
  8 96  1  0  0  0  0
  9 10  1  0  0  0  0
 10 11  1  0  0  0  0
 11 12  1  0  0  0  0
 11 97  1  0  0  0  0
 11 98  1  0  0  0  0
 12 13  1  0  0  0  0
 13 14  1  0  0  0  0
 14 15  1  0  0  0  0
 15 16  1  0  0  0  0
 16 17  1  0  0  0  0
 17 18  1  0  0  0  0
 18 19  1  0  0  0  0
 19 20  1  0  0  0  0
 20 21  1  0  0  0  0
 21 22  1  0  0  0  0
 22 23  1  0  0  0  0
 23 24  1  0  0  0  0
 24 25  1  0  0  0  0
 25 26  1  0  0  0  0
 26 27  1  0  0  0  0
 27 28  1  0  0  0  0
 28 29  1  0  0  0  0
 29 30  1  0  0  0  0
 30 31  1  0  0  0  0
 31 32  1  0  0  0  0
 31 99  1  0  0  0  0
 31100  1  0  0  0  0
 32 33  1  0  0  0  0
 32101  1  0  0  0  0
 32102  1  0  0  0  0
 33 34  1  0  0  0  0
 33103  1  0  0  0  0
 33104  1  0  0  0  0
 34 35  1  0  0  0  0
 34105  1  0  0  0  0
 34106  1  0  0  0  0
 35 36  1  0  0  0  0
 35107  1  0  0  0  0
 35108  1  0  0  0  0
 36 37  1  0  0  0  0
 36109  1  0  0  0  0
 36110  1  0  0  0  0
 37 38  1  0  0  0  0
 37111  1  0  0  0  0
 37112  1  0  0  0  0
 38 39  1  0  0  0  0
 38113  1  0  0  0  0
 38114  1  0  0  0  0
 39 40  1  0  0  0  0
 39115  1  0  0  0  0
 39116  1  0  0  0  0
 40 41  1  0  0  0  0
 40117  1  0  0  0  0
 40118  1  0  0  0  0
 41 42  1  0  0  0  0
 41119  1  0  0  0  0
 41120  1  0  0  0  0
 42 43  1  0  0  0  0
 42121  1  0  0  0  0
 42122  1  0  0  0  0
 43 44  1  0  0  0  0
 43123  1  0  0  0  0
 43124  1  0  0  0  0
 44 45  1  0  0  0  0
 44125  1  0  0  0  0
 44126  1  0  0  0  0
 45 46  1  0  0  0  0
 45127  1  0  0  0  0
 45128  1  0  0  0  0
 46 47  1  0  0  0  0
 46129  1  0  0  0  0
 46130  1  0  0  0  0
 47 48  1  0  0  0  0
 47131  1  0  0  0  0
 47132  1  0  0  0  0
 48 49  1  0  0  0  0
 48133  1  0  0  0  0
 48134  1  0  0  0  0
 49 50  1  0  0  0  0
 49135  1  0  0  0  0
 49136  1  0  0  0  0
 50 51  1  0  0  0  0
 50137  1  0  0  0  0
 50138  1  0  0  0  0
 51 52  1  0  0  0  0
 51139  1  0  0  0  0
 51140  1  0  0  0  0
 52 53  1  0  0  0  0
 52141  1  0  0  0  0
 52142  1  0  0  0  0
 53 54  1  0  0  0  0
 53143  1  0  0  0  0
 53144  1  0  0  0  0
 54 55  1  0  0  0  0
 54145  1  0  0  0  0
 54146  1  0  0  0  0
 55 56  1  0  0  0  0
 55147  1  0  0  0  0
 55148  1  0  0  0  0
 56 57  1  0  0  0  0
 56149  1  0  0  0  0
 56150  1  0  0  0  0
 57 58  1  0  0  0  0
 57151  1  0  0  0  0
 57152  1  0  0  0  0
 58 59  1  0  0  0  0
 58153  1  0  0  0  0
 58154  1  0  0  0  0
 59 60  1  0  0  0  0
 59155  1  0  0  0  0
 59156  1  0  0  0  0
 60 61  1  0  0  0  0
 60157  1  0  0  0  0
 60158  1  0  0  0  0
 61 62  1  0  0  0  0
 61159  1  0  0  0  0
 61160  1  0  0  0  0
 62 63  1  0  0  0  0
 62161  1  0  0  0  0
 62162  1  0  0  0  0
 63 64  1  0  0  0  0
 63163  1  0  0  0  0
 63164  1  0  0  0  0
 64 65  1  0  0  0  0
 64165  1  0  0  0  0
 64166  1  0  0  0  0
 65 66  1  0  0  0  0
 65167  1  0  0  0  0
 65168  1  0  0  0  0
 66 67  1  0  0  0  0
 66169  1  0  0  0  0
 66170  1  0  0  0  0
 67 68  1  0  0  0  0
 67171  1  0  0  0  0
 67172  1  0  0  0  0
 68 69  1  0  0  0  0
 68173  1  0  0  0  0
 68174  1  0  0  0  0
 69 70  1  0  0  0  0
 69175  1  0  0  0  0
 69176  1  0  0  0  0
 70 71  1  0  0  0  0
 70177  1  0  0  0  0
 70178  1  0  0  0  0
 71 72  1  0  0  0  0
 71179  1  0  0  0  0
 71180  1  0  0  0  0
 72 73  1  0  0  0  0
 72181  1  0  0  0  0
 72182  1  0  0  0  0
 73 74  1  0  0  0  0
 73183  1  0  0  0  0
 73184  1  0  0  0  0
 74 75  1  0  0  0  0
 74185  1  0  0  0  0
 74186  1  0  0  0  0
 75 76  1  0  0  0  0
 75187  1  0  0  0  0
 75188  1  0  0  0  0
 76 77  1  0  0  0  0
 76189  1  0  0  0  0
 76190  1  0  0  0  0
 77 78  1  0  0  0  0
 77191  1  0  0  0  0
 77192  1  0  0  0  0
 78 79  1  0  0  0  0
 78193  1  0  0  0  0
 78194  1  0  0  0  0
 79 80  1  0  0  0  0
 79195  1  0  0  0  0
 79196  1  0  0  0  0
 80 81  1  0  0  0  0
 80197  1  0  0  0  0
 80198  1  0  0  0  0
 81199  1  0  0  0  0
 81200  1  0  0  0  0
 81201  1  0  0  0  0
M  END
$$$$
