
 OpenBabel04232216593D

 23 24  0  0  0  0  0  0  0  0999 V2000
    3.3681   -2.0133   -0.7809 O   0  0  0  0  0  0  0  0  0  0  0  0
    4.0679   -1.2309   -0.1611 C   0  0  0  0  0  0  0  0  0  0  0  0
    3.9438    0.2412   -0.2173 C   0  0  0  0  0  0  0  0  0  0  0  0
    4.9791    0.6704    0.5313 C   0  0  0  0  0  0  0  0  0  0  0  0
    5.4957   -0.4389    1.3363 C   0  0  0  0  0  0  0  0  0  0  0  0
    5.2462   -1.5786    0.6754 C   0  0  0  0  0  0  0  0  0  0  0  0
    6.2832   -2.5252    0.2881 C   0  0  0  0  0  0  0  0  0  0  0  0
    7.5188   -2.1694   -0.1463 C   0  0  0  0  0  0  0  0  0  0  0  0
    7.9886   -0.7803   -0.2185 C   0  0  0  0  0  0  0  0  0  0  0  0
    7.3462    0.1255   -0.9812 C   0  0  0  0  0  0  0  0  0  0  0  0
    7.0277    1.4865   -0.5447 C   0  0  0  0  0  0  0  0  0  0  0  0
    5.8470    1.7687    0.0828 C   0  0  0  0  0  0  0  0  0  0  0  0
    5.3443    3.1685    0.2576 C   0  0  0  0  0  0  0  0  0  0  0  0
    3.4338    0.7340   -1.0243 H   0  0  0  0  0  0  0  0  0  0  0  0
    6.3988   -0.2783    1.9171 H   0  0  0  0  0  0  0  0  0  0  0  0
    5.9942   -3.5722    0.3030 H   0  0  0  0  0  0  0  0  0  0  0  0
    8.2432   -2.9361   -0.4143 H   0  0  0  0  0  0  0  0  0  0  0  0
    8.6534   -0.4772    0.5875 H   0  0  0  0  0  0  0  0  0  0  0  0
    6.6536   -0.2363   -1.7455 H   0  0  0  0  0  0  0  0  0  0  0  0
    7.6975    2.2775   -0.8720 H   0  0  0  0  0  0  0  0  0  0  0  0
    6.1577    3.9008    0.2170 H   0  0  0  0  0  0  0  0  0  0  0  0
    4.8239    3.2964    1.2112 H   0  0  0  0  0  0  0  0  0  0  0  0
    4.6421    3.4091   -0.5509 H   0  0  0  0  0  0  0  0  0  0  0  0
  1  2  2  0  0  0  0
  2  3  1  0  0  0  0
  2  6  1  0  0  0  0
  3  4  2  0  0  0  0
  3 14  1  0  0  0  0
  4  5  1  0  0  0  0
  4 12  1  0  0  0  0
  5  6  2  0  0  0  0
  5 15  1  0  0  0  0
  6  7  1  0  0  0  0
  7  8  2  3  0  0  0
  7 16  1  0  0  0  0
  8  9  1  0  0  0  0
  8 17  1  0  0  0  0
  9 10  2  3  0  0  0
  9 18  1  0  0  0  0
 10 11  1  0  0  0  0
 10 19  1  0  0  0  0
 11 12  2  3  0  0  0
 11 20  1  0  0  0  0
 12 13  1  0  0  0  0
 13 21  1  0  0  0  0
 13 22  1  0  0  0  0
 13 23  1  0  0  0  0
M  END
$$$$
