
 OpenBabel04232216463D

 59 60  0  0  1  0  0  0  0  0999 V2000
    3.5404   -2.2350   -1.6499 C   0  0  0  0  0  0  0  0  0  0  0  0
    4.9357   -2.8808   -2.6882 C   0  0  3  0  0  0  0  0  0  0  0  0
    4.9619   -2.0173   -3.9734 C   0  0  0  0  0  0  0  0  0  0  0  0
    6.1689   -1.5759   -4.4779 C   0  0  0  0  0  0  0  0  0  0  0  0
    6.7120   -0.8045   -3.0441 C   0  0  0  0  0  0  0  0  0  0  0  0
    6.8749   -2.6187   -5.3626 N   0  0  0  0  0  0  0  0  0  0  0  0
    7.7554   -2.9411   -6.4143 C   0  0  0  0  0  0  0  0  0  0  0  0
    8.3687   -4.7088   -6.8224 C   0  0  0  0  0  0  0  0  0  0  0  0
    7.8564   -5.1329   -5.5072 C   0  0  0  0  0  0  0  0  0  0  0  0
    7.5450   -4.5795   -3.8419 C   0  0  0  0  0  0  0  0  0  0  0  0
    9.3705   -4.4969   -3.5483 C   0  0  0  0  0  0  0  0  0  0  0  0
   10.4320   -5.0990   -4.8874 C   0  0  0  0  0  0  0  0  0  0  0  0
   11.9860   -5.1952   -5.3863 C   0  0  0  0  0  0  0  0  0  0  0  0
   12.4622   -6.2964   -6.4430 C   0  0  0  0  0  0  0  0  0  0  0  0
   13.5996   -6.2654   -7.2051 C   0  0  0  0  0  0  0  0  0  0  0  0
   14.0887   -7.3824   -8.0382 C   0  0  0  0  0  0  0  0  0  0  0  0
   15.3059   -7.4892   -8.6113 C   0  0  0  0  0  0  0  0  0  0  0  0
   15.7794   -8.5561   -9.3687 N   0  0  0  0  0  0  0  0  0  0  0  0
   16.1527   -8.3151  -10.7528 C   0  0  0  0  0  0  0  0  0  0  0  0
   14.8493   -7.8307  -11.4860 C   0  0  0  0  0  0  0  0  0  0  0  0
   13.4155   -8.5410  -11.1380 C   0  0  0  0  0  0  0  0  0  0  0  0
   11.7895   -7.7874  -10.4590 C   0  0  0  0  0  0  0  0  0  0  0  0
   10.9778   -6.4118   -9.2813 C   0  0  0  0  0  0  0  0  0  0  0  0
    9.3389   -5.7928   -8.1917 C   0  0  0  0  0  0  0  0  0  0  0  0
    6.5099   -3.9299   -2.8845 C   0  0  0  0  0  0  0  0  0  0  0  0
    2.9064   -1.4911   -2.1920 H   0  0  0  0  0  0  0  0  0  0  0  0
    3.8653   -1.5833   -0.7918 H   0  0  0  0  0  0  0  0  0  0  0  0
    2.8107   -2.9339   -1.1907 H   0  0  0  0  0  0  0  0  0  0  0  0
    5.4484   -2.3929   -1.8272 H   0  0  0  0  0  0  0  0  0  0  0  0
    3.9878   -1.7579   -4.3901 H   0  0  0  0  0  0  0  0  0  0  0  0
    5.8094   -0.4027   -2.4780 H   0  0  0  0  0  0  0  0  0  0  0  0
    7.2661    0.1312   -3.1289 H   0  0  0  0  0  0  0  0  0  0  0  0
    7.1595   -1.4349   -2.2539 H   0  0  0  0  0  0  0  0  0  0  0  0
    8.3649   -2.1643   -6.9032 H   0  0  0  0  0  0  0  0  0  0  0  0
    8.3379   -4.2056   -5.1915 H   0  0  0  0  0  0  0  0  0  0  0  0
    9.5992   -4.9749   -2.5983 H   0  0  0  0  0  0  0  0  0  0  0  0
    9.5753   -3.4105   -3.4935 H   0  0  0  0  0  0  0  0  0  0  0  0
   10.2143   -4.2792   -5.5837 H   0  0  0  0  0  0  0  0  0  0  0  0
    9.9860   -6.0502   -5.1901 H   0  0  0  0  0  0  0  0  0  0  0  0
   12.6552   -5.2938   -4.5377 H   0  0  0  0  0  0  0  0  0  0  0  0
   12.2051   -4.2570   -5.9247 H   0  0  0  0  0  0  0  0  0  0  0  0
   11.8524   -7.1979   -6.5294 H   0  0  0  0  0  0  0  0  0  0  0  0
   14.2379   -5.3834   -7.2278 H   0  0  0  0  0  0  0  0  0  0  0  0
   13.3861   -8.1849   -8.2427 H   0  0  0  0  0  0  0  0  0  0  0  0
   16.0556   -6.7011   -8.5604 H   0  0  0  0  0  0  0  0  0  0  0  0
   15.1453   -9.3560   -9.3377 H   0  0  0  0  0  0  0  0  0  0  0  0
   16.6466   -9.2108  -11.1738 H   0  0  0  0  0  0  0  0  0  0  0  0
   16.9394   -7.5399  -10.7956 H   0  0  0  0  0  0  0  0  0  0  0  0
   15.1227   -7.8767  -12.5610 H   0  0  0  0  0  0  0  0  0  0  0  0
   14.7118   -6.7835  -11.2490 H   0  0  0  0  0  0  0  0  0  0  0  0
   13.6397   -9.5547  -10.7058 H   0  0  0  0  0  0  0  0  0  0  0  0
   13.1683   -8.9158  -12.1824 H   0  0  0  0  0  0  0  0  0  0  0  0
   11.5843   -7.3700  -11.4693 H   0  0  0  0  0  0  0  0  0  0  0  0
   11.2135   -8.7341  -10.4260 H   0  0  0  0  0  0  0  0  0  0  0  0
   10.7502   -5.8015  -10.1783 H   0  0  0  0  0  0  0  0  0  0  0  0
   11.8892   -5.9773   -8.8884 H   0  0  0  0  0  0  0  0  0  0  0  0
    8.9696   -6.8907   -7.8203 H   0  0  0  0  0  0  0  0  0  0  0  0
    8.8054   -5.4655   -9.0764 H   0  0  0  0  0  0  0  0  0  0  0  0
    6.9407   -3.7318   -1.8881 H   0  0  0  0  0  0  0  0  0  0  0  0
  1  2  1  0  0  0  0
  1 26  1  0  0  0  0
  1 27  1  0  0  0  0
  1 28  1  0  0  0  0
  2  3  1  0  0  0  0
  2 25  1  0  0  0  0
  2 29  1  0  0  0  0
  3  4  2  3  0  0  0
  3 30  1  0  0  0  0
  4  5  1  0  0  0  0
  4  6  1  0  0  0  0
  5 31  1  0  0  0  0
  5 32  1  0  0  0  0
  5 33  1  0  0  0  0
  6  7  2  3  0  0  0
  7  8  1  0  0  0  0
  7 34  1  0  0  0  0
  8  9  2  3  0  0  0
  8 24  1  0  0  0  0
  9 10  1  0  0  0  0
  9 35  1  0  0  0  0
 10 11  1  0  0  0  0
 10 25  2  3  0  0  0
 11 12  1  0  0  0  0
 11 36  1  0  0  0  0
 11 37  1  0  0  0  0
 12 13  1  0  0  0  0
 12 38  1  0  0  0  0
 12 39  1  0  0  0  0
 13 14  1  0  0  0  0
 13 40  1  0  0  0  0
 13 41  1  0  0  0  0
 14 15  2  3  0  0  0
 14 42  1  0  0  0  0
 15 16  1  0  0  0  0
 15 43  1  0  0  0  0
 16 17  2  3  0  0  0
 16 44  1  0  0  0  0
 17 18  1  0  0  0  0
 17 45  1  0  0  0  0
 18 19  1  0  0  0  0
 18 46  1  0  0  0  0
 19 20  1  0  0  0  0
 19 47  1  0  0  0  0
 19 48  1  0  0  0  0
 20 21  1  0  0  0  0
 20 49  1  0  0  0  0
 20 50  1  0  0  0  0
 21 22  1  0  0  0  0
 21 51  1  0  0  0  0
 21 52  1  0  0  0  0
 22 23  1  0  0  0  0
 22 53  1  0  0  0  0
 22 54  1  0  0  0  0
 23 24  1  0  0  0  0
 23 55  1  0  0  0  0
 23 56  1  0  0  0  0
 24 57  1  0  0  0  0
 24 58  1  0  0  0  0
 25 59  1  0  0  0  0
M  END
$$$$
