
 OpenBabel04232216443D

 53 54  0  0  0  0  0  0  0  0999 V2000
    4.8601    1.5009   -1.6414 C   0  0  0  0  0  0  0  0  0  0  0  0
    5.3565    0.3552   -2.5309 C   0  0  0  0  0  0  0  0  0  0  0  0
    4.5498   -0.7529   -2.5190 C   0  0  0  0  0  0  0  0  0  0  0  0
    3.0764   -0.9050   -2.9181 C   0  0  0  0  0  0  0  0  0  0  0  0
    2.2539    0.1864   -3.6219 C   0  0  0  0  0  0  0  0  0  0  0  0
    2.7458    0.7176   -4.9697 C   0  0  0  0  0  0  0  0  0  0  0  0
    2.9914   -0.3210   -6.0745 C   0  0  0  0  0  0  0  0  0  0  0  0
    1.7277   -1.0392   -6.5608 C   0  0  0  0  0  0  0  0  0  0  0  0
    2.0497   -2.0056   -7.7083 C   0  0  0  0  0  0  0  0  0  0  0  0
    0.8148   -2.7460   -8.1951 C   0  0  0  0  0  0  0  0  0  0  0  0
    0.3014   -3.4827   -7.1749 F   0  0  0  0  0  0  0  0  0  0  0  0
    4.7913   -1.6468   -1.3434 C   0  0  0  0  0  0  0  0  0  0  0  0
    5.4763   -2.7936   -1.4962 C   0  0  0  0  0  0  0  0  0  0  0  0
    6.9280   -2.6878   -1.2448 C   0  0  0  0  0  0  0  0  0  0  0  0
    7.4158   -1.8825   -0.0485 C   0  0  0  0  0  0  0  0  0  0  0  0
    7.6553   -2.8431   -2.3756 C   0  0  0  0  0  0  0  0  0  0  0  0
    8.3762   -1.5943   -2.7338 C   0  0  0  0  0  0  0  0  0  0  0  0
    7.4456   -0.6393   -3.5052 C   0  0  0  0  0  0  0  0  0  0  0  0
    8.1031   -0.3206   -4.8334 C   0  0  0  0  0  0  0  0  0  0  0  0
    7.2531   -0.8442   -5.8679 O   0  0  0  0  0  0  0  0  0  0  0  0
    6.8727    0.2697   -2.6576 C   0  0  0  0  0  0  0  0  0  0  0  0
    7.6906    1.5631   -2.5510 C   0  0  0  0  0  0  0  0  0  0  0  0
    8.9227    1.7587   -2.1895 N   0  0  0  0  0  0  0  0  0  0  0  0
    9.5479    0.6228   -1.6999 N   0  0  0  0  0  0  0  0  0  0  0  0
   10.0043   -0.0805   -2.6266 N   0  0  0  0  0  0  0  0  0  0  0  0
    9.6101   -1.3971   -2.3806 N   0  0  0  0  0  0  0  0  0  0  0  0
    5.5474    1.6616   -0.7989 H   0  0  0  0  0  0  0  0  0  0  0  0
    3.8907    1.2690   -1.1768 H   0  0  0  0  0  0  0  0  0  0  0  0
    4.7460    2.4339   -2.1959 H   0  0  0  0  0  0  0  0  0  0  0  0
    2.4978   -1.1627   -2.0190 H   0  0  0  0  0  0  0  0  0  0  0  0
    3.0289   -1.7990   -3.5554 H   0  0  0  0  0  0  0  0  0  0  0  0
    2.1140    1.0333   -2.9404 H   0  0  0  0  0  0  0  0  0  0  0  0
    1.2453   -0.2264   -3.7750 H   0  0  0  0  0  0  0  0  0  0  0  0
    3.6701    1.2853   -4.8123 H   0  0  0  0  0  0  0  0  0  0  0  0
    2.0021    1.4398   -5.3364 H   0  0  0  0  0  0  0  0  0  0  0  0
    3.7345   -1.0489   -5.7398 H   0  0  0  0  0  0  0  0  0  0  0  0
    3.4360    0.2091   -6.9272 H   0  0  0  0  0  0  0  0  0  0  0  0
    0.9904   -0.3035   -6.9049 H   0  0  0  0  0  0  0  0  0  0  0  0
    1.2715   -1.5963   -5.7356 H   0  0  0  0  0  0  0  0  0  0  0  0
    2.7880   -2.7387   -7.3628 H   0  0  0  0  0  0  0  0  0  0  0  0
    2.4937   -1.4574   -8.5475 H   0  0  0  0  0  0  0  0  0  0  0  0
    1.0702   -3.4346   -9.0069 H   0  0  0  0  0  0  0  0  0  0  0  0
    0.0391   -2.0611   -8.5499 H   0  0  0  0  0  0  0  0  0  0  0  0
    4.9637   -1.0420   -0.4479 H   0  0  0  0  0  0  0  0  0  0  0  0
    5.2345   -3.3747   -2.3879 H   0  0  0  0  0  0  0  0  0  0  0  0
    6.6274   -1.6718    0.6812 H   0  0  0  0  0  0  0  0  0  0  0  0
    7.8260   -0.9083   -0.3304 H   0  0  0  0  0  0  0  0  0  0  0  0
    8.1981   -2.4333    0.4782 H   0  0  0  0  0  0  0  0  0  0  0  0
    7.2568   -3.3589   -3.2459 H   0  0  0  0  0  0  0  0  0  0  0  0
    9.0826   -0.8019   -4.9610 H   0  0  0  0  0  0  0  0  0  0  0  0
    8.2296    0.7401   -5.0102 H   0  0  0  0  0  0  0  0  0  0  0  0
    7.4488   -1.7960   -5.9418 H   0  0  0  0  0  0  0  0  0  0  0  0
    7.1195    2.4721   -2.8046 H   0  0  0  0  0  0  0  0  0  0  0  0
  1  2  1  0  0  0  0
  1 27  1  0  0  0  0
  1 28  1  0  0  0  0
  1 29  1  0  0  0  0
  2  3  2  3  0  0  0
  2 21  1  0  0  0  0
  3  4  1  0  0  0  0
  3 12  1  0  0  0  0
  4  5  1  0  0  0  0
  4 30  1  0  0  0  0
  4 31  1  0  0  0  0
  5  6  1  0  0  0  0
  5 32  1  0  0  0  0
  5 33  1  0  0  0  0
  6  7  1  0  0  0  0
  6 34  1  0  0  0  0
  6 35  1  0  0  0  0
  7  8  1  0  0  0  0
  7 36  1  0  0  0  0
  7 37  1  0  0  0  0
  8  9  1  0  0  0  0
  8 38  1  0  0  0  0
  8 39  1  0  0  0  0
  9 10  1  0  0  0  0
  9 40  1  0  0  0  0
  9 41  1  0  0  0  0
 10 11  1  0  0  0  0
 10 42  1  0  0  0  0
 10 43  1  0  0  0  0
 12 13  2  3  0  0  0
 12 44  1  0  0  0  0
 13 14  1  0  0  0  0
 13 45  1  0  0  0  0
 14 15  1  0  0  0  0
 14 16  2  3  0  0  0
 15 46  1  0  0  0  0
 15 47  1  0  0  0  0
 15 48  1  0  0  0  0
 16 17  1  0  0  0  0
 16 49  1  0  0  0  0
 17 18  1  0  0  0  0
 17 26  2  0  0  0  0
 18 19  1  0  0  0  0
 18 21  2  0  0  0  0
 19 20  1  0  0  0  0
 19 50  1  0  0  0  0
 19 51  1  0  0  0  0
 20 52  1  0  0  0  0
 21 22  1  0  0  0  0
 22 23  2  0  0  0  0
 22 53  1  0  0  0  0
 23 24  1  0  0  0  0
 24 25  2  0  0  0  0
 25 26  1  0  0  0  0
M  END
$$$$
