
 OpenBabel04232216543D

208207  0  0  0  0  0  0  0  0999 V2000
    1.0427   -0.1443    0.0045 C   0  0  0  0  0  0  0  0  0  0  0  0
    2.5620   -0.1447    0.0159 C   0  0  0  0  0  0  0  0  0  0  0  0
    3.0965   -0.4521    1.4141 C   0  0  0  0  0  0  0  0  0  0  0  0
    4.6278   -0.4553    1.4347 C   0  0  0  0  0  0  0  0  0  0  0  0
    5.1673   -0.7635    2.8387 C   0  0  0  0  0  0  0  0  0  0  0  0
    6.6306   -0.7628    2.8363 N   0  0  0  0  0  0  0  0  0  0  0  0
    7.0706   -1.0599    4.1391 N   0  0  0  0  0  0  0  0  0  0  0  0
    8.4769   -1.0546    4.1449 N   0  0  0  0  0  0  0  0  0  0  0  0
    8.9386   -1.3324    5.4242 N   0  0  0  0  0  0  0  0  0  0  0  0
   10.3393   -1.3329    5.4212 N   0  0  0  0  0  0  0  0  0  0  0  0
   10.7944   -1.6335    6.7181 N   0  0  0  0  0  0  0  0  0  0  0  0
   12.2186   -1.6582    6.7435 N   0  0  0  0  0  0  0  0  0  0  0  0
   12.7174   -1.9282    8.0418 N   0  0  0  0  0  0  0  0  0  0  0  0
   14.1307   -1.9166    8.0246 N   0  0  0  0  0  0  0  0  0  0  0  0
   14.6171   -2.1969    9.3148 N   0  0  0  0  0  0  0  0  0  0  0  0
   16.0199   -2.2027    9.3247 N   0  0  0  0  0  0  0  0  0  0  0  0
   16.4543   -2.5117   10.6208 N   0  0  0  0  0  0  0  0  0  0  0  0
   17.8807   -2.5054   10.6412 N   0  0  0  0  0  0  0  0  0  0  0  0
   18.3813   -2.7829   11.9518 N   0  0  0  0  0  0  0  0  0  0  0  0
   19.8275   -2.8165   11.9682 N   0  0  0  0  0  0  0  0  0  0  0  0
   20.3326   -3.0977   13.2702 N   0  0  0  0  0  0  0  0  0  0  0  0
   21.7469   -3.0751   13.2620 N   0  0  0  0  0  0  0  0  0  0  0  0
   22.2126   -3.3840   14.5591 N   0  0  0  0  0  0  0  0  0  0  0  0
   23.6258   -3.3800   14.5810 N   0  0  0  0  0  0  0  0  0  0  0  0
   24.0977   -3.6738   15.8784 N   0  0  0  0  0  0  0  0  0  0  0  0
   25.5185   -3.6810   15.8708 N   0  0  0  0  0  0  0  0  0  0  0  0
   25.9735   -3.9752   17.2179 C   0  0  0  0  0  0  0  0  0  0  0  0
   27.4966   -3.9743   17.2237 C   0  0  0  0  0  0  0  0  0  0  0  0
   28.0155   -4.2890   18.6182 C   0  0  0  0  0  0  0  0  0  0  0  0
   29.5345   -4.2911   18.6265 C   0  0  0  0  0  0  0  0  0  0  0  0
   30.0476   -4.6042   20.0209 C   0  0  0  0  0  0  0  0  0  0  0  0
   31.5634   -4.6058   20.0276 C   0  0  0  0  0  0  0  0  0  0  0  0
   32.0772   -4.9167   21.4211 C   0  0  0  0  0  0  0  0  0  0  0  0
   33.5940   -4.9286   21.4172 C   0  0  0  0  0  0  0  0  0  0  0  0
   34.1048   -5.2335   22.8192 C   0  0  0  0  0  0  0  0  0  0  0  0
   35.6213   -5.2400   22.8239 C   0  0  0  0  0  0  0  0  0  0  0  0
   36.1296   -5.5496   24.2175 C   0  0  0  0  0  0  0  0  0  0  0  0
   37.6478   -5.5533   24.2207 C   0  0  0  0  0  0  0  0  0  0  0  0
   38.1574   -5.8667   25.6156 C   0  0  0  0  0  0  0  0  0  0  0  0
   39.6746   -5.8675   25.6192 C   0  0  0  0  0  0  0  0  0  0  0  0
   40.1842   -6.1830   27.0122 C   0  0  0  0  0  0  0  0  0  0  0  0
   41.7024   -6.1825   27.0148 C   0  0  0  0  0  0  0  0  0  0  0  0
   42.2106   -6.4972   28.4107 C   0  0  0  0  0  0  0  0  0  0  0  0
   43.7284   -6.4980   28.4156 C   0  0  0  0  0  0  0  0  0  0  0  0
   44.2394   -6.8129   29.8102 C   0  0  0  0  0  0  0  0  0  0  0  0
   45.7547   -6.8199   29.8152 C   0  0  0  0  0  0  0  0  0  0  0  0
   46.2637   -7.1264   31.2081 C   0  0  0  0  0  0  0  0  0  0  0  0
   47.7805   -7.1336   31.2115 C   0  0  0  0  0  0  0  0  0  0  0  0
   48.2924   -7.4440   32.6078 C   0  0  0  0  0  0  0  0  0  0  0  0
   49.8114   -7.4493   32.6129 C   0  0  0  0  0  0  0  0  0  0  0  0
   50.3143   -7.7684   34.0049 C   0  0  0  0  0  0  0  0  0  0  0  0
   51.8338   -7.7698   34.0073 C   0  0  0  0  0  0  0  0  0  0  0  0
   52.3453   -8.0850   35.3999 C   0  0  0  0  0  0  0  0  0  0  0  0
   53.8636   -8.0880   35.4067 C   0  0  0  0  0  0  0  0  0  0  0  0
   54.3749   -8.4079   36.7978 C   0  0  0  0  0  0  0  0  0  0  0  0
   55.8891   -8.4139   36.7967 C   0  0  0  0  0  0  0  0  0  0  0  0
   56.4003   -8.7305   38.1947 C   0  0  0  0  0  0  0  0  0  0  0  0
   57.9167   -8.7329   38.1981 C   0  0  0  0  0  0  0  0  0  0  0  0
   58.4277   -9.0495   39.5908 C   0  0  0  0  0  0  0  0  0  0  0  0
   59.9455   -9.0548   39.5960 C   0  0  0  0  0  0  0  0  0  0  0  0
   60.4591   -9.3719   40.9902 C   0  0  0  0  0  0  0  0  0  0  0  0
   61.9800   -9.3790   41.0029 C   0  0  0  0  0  0  0  0  0  0  0  0
   62.4963   -9.6974   42.4027 C   0  0  0  0  0  0  0  0  0  0  0  0
   64.0220   -9.7068   42.4267 C   0  0  0  0  0  0  0  0  0  0  0  0
   64.5678  -10.0244   43.8262 C   0  0  0  0  0  0  0  0  0  0  0  0
   66.3918   -9.9979   43.7160 S   0  0  0  0  0  0  0  0  0  0  0  0
   66.9272  -10.3881   45.4349 C   0  0  0  0  0  0  0  0  0  0  0  0
   68.7812  -10.3779   45.4088 S   0  0  0  0  0  0  0  0  0  0  0  0
   69.2338  -10.8587   47.1173 C   0  0  0  0  0  0  0  0  0  0  0  0
   68.6310  -12.5406   47.5136 S   0  0  0  0  0  0  0  0  0  0  0  0
   69.1550  -12.7580   49.2588 C   0  0  0  0  0  0  0  0  0  0  0  0
   68.4236  -11.4502   50.2855 S   0  0  0  0  0  0  0  0  0  0  0  0
   68.9467  -11.8879   51.9607 C   0  0  0  0  0  0  0  0  0  0  0  0
   68.3974  -10.6085   53.1588 S   0  0  0  0  0  0  0  0  0  0  0  0
   66.5778  -10.6049   52.9279 C   0  0  0  0  0  0  0  0  0  0  0  0
   65.8231   -9.3003   53.9987 S   0  0  0  0  0  0  0  0  0  0  0  0
   66.4814   -7.7440   53.2380 C   0  0  0  0  0  0  0  0  0  0  0  0
   65.8662   -7.6192   51.5365 S   0  0  0  0  0  0  0  0  0  0  0  0
   66.6510   -6.1088   50.8930 C   0  0  0  0  0  0  0  0  0  0  0  0
   66.1402   -5.8579   49.1455 S   0  0  0  0  0  0  0  0  0  0  0  0
   66.7947   -7.3670   48.3492 C   0  0  0  0  0  0  0  0  0  0  0  0
    0.6684    0.0766   -0.9995 H   0  0  0  0  0  0  0  0  0  0  0  0
    0.6492    0.6122    0.6909 H   0  0  0  0  0  0  0  0  0  0  0  0
    0.6516   -1.1204    0.3087 H   0  0  0  0  0  0  0  0  0  0  0  0
    2.9274    0.8334   -0.3181 H   0  0  0  0  0  0  0  0  0  0  0  0
    2.9297   -0.8908   -0.6983 H   0  0  0  0  0  0  0  0  0  0  0  0
    2.7183   -1.4281    1.7429 H   0  0  0  0  0  0  0  0  0  0  0  0
    2.7176    0.2953    2.1221 H   0  0  0  0  0  0  0  0  0  0  0  0
    4.9932    0.5229    1.0983 H   0  0  0  0  0  0  0  0  0  0  0  0
    4.9948   -1.2032    0.7204 H   0  0  0  0  0  0  0  0  0  0  0  0
    4.7798   -1.7429    3.1495 H   0  0  0  0  0  0  0  0  0  0  0  0
    4.7775   -0.0128    3.5388 H   0  0  0  0  0  0  0  0  0  0  0  0
    6.9680    0.1580    2.5599 H   0  0  0  0  0  0  0  0  0  0  0  0
    6.7463   -1.9840    4.4188 H   0  0  0  0  0  0  0  0  0  0  0  0
    8.7789   -0.1383    3.8308 H   0  0  0  0  0  0  0  0  0  0  0  0
    8.6057   -2.2564    5.6863 H   0  0  0  0  0  0  0  0  0  0  0  0
   10.6625   -0.4159    5.1356 H   0  0  0  0  0  0  0  0  0  0  0  0
   10.3667   -2.5356    6.9471 H   0  0  0  0  0  0  0  0  0  0  0  0
   12.5774   -0.7462    6.4470 H   0  0  0  0  0  0  0  0  0  0  0  0
   12.4332   -2.8555    8.3519 H   0  0  0  0  0  0  0  0  0  0  0  0
   14.4591   -0.9973    7.7393 H   0  0  0  0  0  0  0  0  0  0  0  0
   14.3006   -3.1201    9.6053 H   0  0  0  0  0  0  0  0  0  0  0  0
   16.3776   -1.2876    9.0660 H   0  0  0  0  0  0  0  0  0  0  0  0
   16.0544   -3.4198   10.8701 H   0  0  0  0  0  0  0  0  0  0  0  0
   18.1890   -1.5860   10.3013 H   0  0  0  0  0  0  0  0  0  0  0  0
   18.0346   -3.7010   12.2514 H   0  0  0  0  0  0  0  0  0  0  0  0
   20.2054   -1.9044   11.7042 H   0  0  0  0  0  0  0  0  0  0  0  0
   20.0615   -4.0224   13.5973 H   0  0  0  0  0  0  0  0  0  0  0  0
   22.0921   -2.1538   13.0053 H   0  0  0  0  0  0  0  0  0  0  0  0
   21.8622   -4.2986   14.8349 H   0  0  0  0  0  0  0  0  0  0  0  0
   23.9533   -2.4574   14.3030 H   0  0  0  0  0  0  0  0  0  0  0  0
   23.7353   -4.5899   16.1314 H   0  0  0  0  0  0  0  0  0  0  0  0
   25.8320   -2.7523   15.5918 H   0  0  0  0  0  0  0  0  0  0  0  0
   25.6136   -4.9614   17.5374 H   0  0  0  0  0  0  0  0  0  0  0  0
   25.6023   -3.2288   17.9320 H   0  0  0  0  0  0  0  0  0  0  0  0
   27.8781   -2.9973   16.9012 H   0  0  0  0  0  0  0  0  0  0  0  0
   27.8772   -4.7209   16.5131 H   0  0  0  0  0  0  0  0  0  0  0  0
   27.6417   -5.2673   18.9444 H   0  0  0  0  0  0  0  0  0  0  0  0
   27.6418   -3.5443   19.3317 H   0  0  0  0  0  0  0  0  0  0  0  0
   29.9120   -3.3134   18.3026 H   0  0  0  0  0  0  0  0  0  0  0  0
   29.9118   -5.0366   17.9157 H   0  0  0  0  0  0  0  0  0  0  0  0
   29.6726   -5.5825   20.3468 H   0  0  0  0  0  0  0  0  0  0  0  0
   29.6726   -3.8591   20.7338 H   0  0  0  0  0  0  0  0  0  0  0  0
   31.9417   -3.6278   19.7032 H   0  0  0  0  0  0  0  0  0  0  0  0
   31.9415   -5.3511   19.3161 H   0  0  0  0  0  0  0  0  0  0  0  0
   31.6997   -5.8964   21.7477 H   0  0  0  0  0  0  0  0  0  0  0  0
   31.7020   -4.1731   22.1332 H   0  0  0  0  0  0  0  0  0  0  0  0
   33.9751   -3.9443   21.0935 H   0  0  0  0  0  0  0  0  0  0  0  0
   33.9665   -5.6651   20.7125 H   0  0  0  0  0  0  0  0  0  0  0  0
   33.7257   -6.2123   23.1458 H   0  0  0  0  0  0  0  0  0  0  0  0
   33.7311   -4.4904   23.5298 H   0  0  0  0  0  0  0  0  0  0  0  0
   35.9984   -4.2633   22.4963 H   0  0  0  0  0  0  0  0  0  0  0  0
   35.9941   -5.9877   22.1132 H   0  0  0  0  0  0  0  0  0  0  0  0
   35.7545   -6.5277   24.5446 H   0  0  0  0  0  0  0  0  0  0  0  0
   35.7563   -4.8039   24.9284 H   0  0  0  0  0  0  0  0  0  0  0  0
   38.0235   -4.5746   23.8970 H   0  0  0  0  0  0  0  0  0  0  0  0
   38.0223   -6.2960   23.5080 H   0  0  0  0  0  0  0  0  0  0  0  0
   37.7806   -6.8438   25.9411 H   0  0  0  0  0  0  0  0  0  0  0  0
   37.7820   -5.1208   26.3275 H   0  0  0  0  0  0  0  0  0  0  0  0
   40.0497   -4.8899   25.2957 H   0  0  0  0  0  0  0  0  0  0  0  0
   40.0488   -6.6118   24.9057 H   0  0  0  0  0  0  0  0  0  0  0  0
   39.8093   -7.1613   27.3370 H   0  0  0  0  0  0  0  0  0  0  0  0
   39.8100   -5.4399   27.7246 H   0  0  0  0  0  0  0  0  0  0  0  0
   42.0781   -5.2079   26.6850 H   0  0  0  0  0  0  0  0  0  0  0  0
   42.0766   -6.9316   26.3060 H   0  0  0  0  0  0  0  0  0  0  0  0
   41.8354   -7.4729   28.7349 H   0  0  0  0  0  0  0  0  0  0  0  0
   41.8335   -5.7512   29.1242 H   0  0  0  0  0  0  0  0  0  0  0  0
   44.1038   -5.5206   28.0919 H   0  0  0  0  0  0  0  0  0  0  0  0
   44.1031   -7.2421   27.7034 H   0  0  0  0  0  0  0  0  0  0  0  0
   43.8621   -7.7904   30.1333 H   0  0  0  0  0  0  0  0  0  0  0  0
   43.8613   -6.0687   30.5229 H   0  0  0  0  0  0  0  0  0  0  0  0
   46.1377   -5.8367   29.4862 H   0  0  0  0  0  0  0  0  0  0  0  0
   46.1285   -7.5590   29.1039 H   0  0  0  0  0  0  0  0  0  0  0  0
   45.8876   -8.1112   31.5318 H   0  0  0  0  0  0  0  0  0  0  0  0
   45.8894   -6.3888   31.9182 H   0  0  0  0  0  0  0  0  0  0  0  0
   48.1568   -6.1510   30.8832 H   0  0  0  0  0  0  0  0  0  0  0  0
   48.1549   -7.8727   30.5035 H   0  0  0  0  0  0  0  0  0  0  0  0
   47.9130   -8.4211   32.9324 H   0  0  0  0  0  0  0  0  0  0  0  0
   47.9151   -6.7003   33.3191 H   0  0  0  0  0  0  0  0  0  0  0  0
   50.2116   -6.4865   32.2840 H   0  0  0  0  0  0  0  0  0  0  0  0
   50.1748   -8.2021   31.8971 H   0  0  0  0  0  0  0  0  0  0  0  0
   49.9352   -8.7403   34.3329 H   0  0  0  0  0  0  0  0  0  0  0  0
   49.9447   -7.0197   34.7141 H   0  0  0  0  0  0  0  0  0  0  0  0
   52.2121   -6.7909   33.6835 H   0  0  0  0  0  0  0  0  0  0  0  0
   52.2090   -8.5135   33.2932 H   0  0  0  0  0  0  0  0  0  0  0  0
   51.9692   -9.0630   35.7219 H   0  0  0  0  0  0  0  0  0  0  0  0
   51.9701   -7.3415   36.1142 H   0  0  0  0  0  0  0  0  0  0  0  0
   54.2420   -7.1079   35.0842 H   0  0  0  0  0  0  0  0  0  0  0  0
   54.2367   -8.8300   34.6925 H   0  0  0  0  0  0  0  0  0  0  0  0
   53.9940   -9.3872   37.1178 H   0  0  0  0  0  0  0  0  0  0  0  0
   54.0012   -7.6670   37.5153 H   0  0  0  0  0  0  0  0  0  0  0  0
   56.2716   -7.4387   36.4772 H   0  0  0  0  0  0  0  0  0  0  0  0
   56.2639   -9.1612   36.0873 H   0  0  0  0  0  0  0  0  0  0  0  0
   56.0217   -9.7087   38.5171 H   0  0  0  0  0  0  0  0  0  0  0  0
   56.0243   -7.9854   38.9066 H   0  0  0  0  0  0  0  0  0  0  0  0
   58.2919   -7.7543   37.8742 H   0  0  0  0  0  0  0  0  0  0  0  0
   58.2898   -9.4766   37.4832 H   0  0  0  0  0  0  0  0  0  0  0  0
   58.0480  -10.0269   39.9131 H   0  0  0  0  0  0  0  0  0  0  0  0
   58.0525   -8.3044   40.3031 H   0  0  0  0  0  0  0  0  0  0  0  0
   60.3216   -8.0768   39.2713 H   0  0  0  0  0  0  0  0  0  0  0  0
   60.3170   -9.7994   38.8812 H   0  0  0  0  0  0  0  0  0  0  0  0
   60.0780  -10.3490   41.3115 H   0  0  0  0  0  0  0  0  0  0  0  0
   60.0826   -8.6266   41.7016 H   0  0  0  0  0  0  0  0  0  0  0  0
   62.3553   -8.4011   40.6762 H   0  0  0  0  0  0  0  0  0  0  0  0
   62.3506  -10.1226   40.2863 H   0  0  0  0  0  0  0  0  0  0  0  0
   62.1121  -10.6742   42.7194 H   0  0  0  0  0  0  0  0  0  0  0  0
   62.1167   -8.9504   43.1098 H   0  0  0  0  0  0  0  0  0  0  0  0
   64.3838   -8.7258   42.0903 H   0  0  0  0  0  0  0  0  0  0  0  0
   64.3794  -10.4492   41.7004 H   0  0  0  0  0  0  0  0  0  0  0  0
   64.2149  -11.0106   44.1454 H   0  0  0  0  0  0  0  0  0  0  0  0
   64.2174   -9.2713   44.5394 H   0  0  0  0  0  0  0  0  0  0  0  0
   66.5504  -11.3748   45.7160 H   0  0  0  0  0  0  0  0  0  0  0  0
   66.5609   -9.6271   46.1289 H   0  0  0  0  0  0  0  0  0  0  0  0
   68.8721  -10.0841   47.7994 H   0  0  0  0  0  0  0  0  0  0  0  0
   70.3301  -10.8582   47.1681 H   0  0  0  0  0  0  0  0  0  0  0  0
   70.2477  -12.7842   49.3101 H   0  0  0  0  0  0  0  0  0  0  0  0
   68.7751  -13.7384   49.5725 H   0  0  0  0  0  0  0  0  0  0  0  0
   70.0424  -11.9006   52.0167 H   0  0  0  0  0  0  0  0  0  0  0  0
   68.5782  -12.8649   52.2846 H   0  0  0  0  0  0  0  0  0  0  0  0
   66.1778  -11.5699   53.2524 H   0  0  0  0  0  0  0  0  0  0  0  0
   66.2578  -10.4565   51.8912 H   0  0  0  0  0  0  0  0  0  0  0  0
   67.5725   -7.7406   53.3066 H   0  0  0  0  0  0  0  0  0  0  0  0
   66.1039   -6.9012   53.8282 H   0  0  0  0  0  0  0  0  0  0  0  0
   67.7440   -6.1259   50.9494 H   0  0  0  0  0  0  0  0  0  0  0  0
   66.2911   -5.2441   51.4615 H   0  0  0  0  0  0  0  0  0  0  0  0
   66.4990   -7.3609   47.2959 H   0  0  0  0  0  0  0  0  0  0  0  0
   66.3906   -8.2830   48.7899 H   0  0  0  0  0  0  0  0  0  0  0  0
   67.8861   -7.3858   48.3991 H   0  0  0  0  0  0  0  0  0  0  0  0
  1  2  1  0  0  0  0
  1 82  1  0  0  0  0
  1 83  1  0  0  0  0
  1 84  1  0  0  0  0
  2  3  1  0  0  0  0
  2 85  1  0  0  0  0
  2 86  1  0  0  0  0
  3  4  1  0  0  0  0
  3 87  1  0  0  0  0
  3 88  1  0  0  0  0
  4  5  1  0  0  0  0
  4 89  1  0  0  0  0
  4 90  1  0  0  0  0
  5  6  1  0  0  0  0
  5 91  1  0  0  0  0
  5 92  1  0  0  0  0
  6  7  1  0  0  0  0
  6 93  1  0  0  0  0
  7  8  1  0  0  0  0
  7 94  1  0  0  0  0
  8  9  1  0  0  0  0
  8 95  1  0  0  0  0
  9 10  1  0  0  0  0
  9 96  1  0  0  0  0
 10 11  1  0  0  0  0
 10 97  1  0  0  0  0
 11 12  1  0  0  0  0
 11 98  1  0  0  0  0
 12 13  1  0  0  0  0
 12 99  1  0  0  0  0
 13 14  1  0  0  0  0
 13100  1  0  0  0  0
 14 15  1  0  0  0  0
 14101  1  0  0  0  0
 15 16  1  0  0  0  0
 15102  1  0  0  0  0
 16 17  1  0  0  0  0
 16103  1  0  0  0  0
 17 18  1  0  0  0  0
 17104  1  0  0  0  0
 18 19  1  0  0  0  0
 18105  1  0  0  0  0
 19 20  1  0  0  0  0
 19106  1  0  0  0  0
 20 21  1  0  0  0  0
 20107  1  0  0  0  0
 21 22  1  0  0  0  0
 21108  1  0  0  0  0
 22 23  1  0  0  0  0
 22109  1  0  0  0  0
 23 24  1  0  0  0  0
 23110  1  0  0  0  0
 24 25  1  0  0  0  0
 24111  1  0  0  0  0
 25 26  1  0  0  0  0
 25112  1  0  0  0  0
 26 27  1  0  0  0  0
 26113  1  0  0  0  0
 27 28  1  0  0  0  0
 27114  1  0  0  0  0
 27115  1  0  0  0  0
 28 29  1  0  0  0  0
 28116  1  0  0  0  0
 28117  1  0  0  0  0
 29 30  1  0  0  0  0
 29118  1  0  0  0  0
 29119  1  0  0  0  0
 30 31  1  0  0  0  0
 30120  1  0  0  0  0
 30121  1  0  0  0  0
 31 32  1  0  0  0  0
 31122  1  0  0  0  0
 31123  1  0  0  0  0
 32 33  1  0  0  0  0
 32124  1  0  0  0  0
 32125  1  0  0  0  0
 33 34  1  0  0  0  0
 33126  1  0  0  0  0
 33127  1  0  0  0  0
 34 35  1  0  0  0  0
 34128  1  0  0  0  0
 34129  1  0  0  0  0
 35 36  1  0  0  0  0
 35130  1  0  0  0  0
 35131  1  0  0  0  0
 36 37  1  0  0  0  0
 36132  1  0  0  0  0
 36133  1  0  0  0  0
 37 38  1  0  0  0  0
 37134  1  0  0  0  0
 37135  1  0  0  0  0
 38 39  1  0  0  0  0
 38136  1  0  0  0  0
 38137  1  0  0  0  0
 39 40  1  0  0  0  0
 39138  1  0  0  0  0
 39139  1  0  0  0  0
 40 41  1  0  0  0  0
 40140  1  0  0  0  0
 40141  1  0  0  0  0
 41 42  1  0  0  0  0
 41142  1  0  0  0  0
 41143  1  0  0  0  0
 42 43  1  0  0  0  0
 42144  1  0  0  0  0
 42145  1  0  0  0  0
 43 44  1  0  0  0  0
 43146  1  0  0  0  0
 43147  1  0  0  0  0
 44 45  1  0  0  0  0
 44148  1  0  0  0  0
 44149  1  0  0  0  0
 45 46  1  0  0  0  0
 45150  1  0  0  0  0
 45151  1  0  0  0  0
 46 47  1  0  0  0  0
 46152  1  0  0  0  0
 46153  1  0  0  0  0
 47 48  1  0  0  0  0
 47154  1  0  0  0  0
 47155  1  0  0  0  0
 48 49  1  0  0  0  0
 48156  1  0  0  0  0
 48157  1  0  0  0  0
 49 50  1  0  0  0  0
 49158  1  0  0  0  0
 49159  1  0  0  0  0
 50 51  1  0  0  0  0
 50160  1  0  0  0  0
 50161  1  0  0  0  0
 51 52  1  0  0  0  0
 51162  1  0  0  0  0
 51163  1  0  0  0  0
 52 53  1  0  0  0  0
 52164  1  0  0  0  0
 52165  1  0  0  0  0
 53 54  1  0  0  0  0
 53166  1  0  0  0  0
 53167  1  0  0  0  0
 54 55  1  0  0  0  0
 54168  1  0  0  0  0
 54169  1  0  0  0  0
 55 56  1  0  0  0  0
 55170  1  0  0  0  0
 55171  1  0  0  0  0
 56 57  1  0  0  0  0
 56172  1  0  0  0  0
 56173  1  0  0  0  0
 57 58  1  0  0  0  0
 57174  1  0  0  0  0
 57175  1  0  0  0  0
 58 59  1  0  0  0  0
 58176  1  0  0  0  0
 58177  1  0  0  0  0
 59 60  1  0  0  0  0
 59178  1  0  0  0  0
 59179  1  0  0  0  0
 60 61  1  0  0  0  0
 60180  1  0  0  0  0
 60181  1  0  0  0  0
 61 62  1  0  0  0  0
 61182  1  0  0  0  0
 61183  1  0  0  0  0
 62 63  1  0  0  0  0
 62184  1  0  0  0  0
 62185  1  0  0  0  0
 63 64  1  0  0  0  0
 63186  1  0  0  0  0
 63187  1  0  0  0  0
 64 65  1  0  0  0  0
 64188  1  0  0  0  0
 64189  1  0  0  0  0
 65 66  1  0  0  0  0
 65190  1  0  0  0  0
 65191  1  0  0  0  0
 66 67  1  0  0  0  0
 67 68  1  0  0  0  0
 67192  1  0  0  0  0
 67193  1  0  0  0  0
 68 69  1  0  0  0  0
 69 70  1  0  0  0  0
 69194  1  0  0  0  0
 69195  1  0  0  0  0
 70 71  1  0  0  0  0
 71 72  1  0  0  0  0
 71196  1  0  0  0  0
 71197  1  0  0  0  0
 72 73  1  0  0  0  0
 73 74  1  0  0  0  0
 73198  1  0  0  0  0
 73199  1  0  0  0  0
 74 75  1  0  0  0  0
 75 76  1  0  0  0  0
 75200  1  0  0  0  0
 75201  1  0  0  0  0
 76 77  1  0  0  0  0
 77 78  1  0  0  0  0
 77202  1  0  0  0  0
 77203  1  0  0  0  0
 78 79  1  0  0  0  0
 79 80  1  0  0  0  0
 79204  1  0  0  0  0
 79205  1  0  0  0  0
 80 81  1  0  0  0  0
 81206  1  0  0  0  0
 81207  1  0  0  0  0
 81208  1  0  0  0  0
M  END
$$$$
