
 OpenBabel04232216513D

 57 59  0  0  1  0  0  0  0  0999 V2000
    9.1671    6.0654    0.7416 C   0  0  0  0  0  0  0  0  0  0  0  0
    8.8764    5.2064   -0.5023 C   0  0  0  0  0  0  0  0  0  0  0  0
    7.4511    5.4313   -1.1296 C   0  0  3  0  0  0  0  0  0  0  0  0
    7.2934    7.0527   -1.2702 C   0  0  0  0  0  0  0  0  0  0  0  0
    6.2060    7.7120   -2.1798 C   0  0  0  0  0  0  0  0  0  0  0  0
    6.4936    9.1629   -2.6497 C   0  0  0  0  0  0  0  0  0  0  0  0
    5.2973    9.6915   -3.4738 C   0  0  0  0  0  0  0  0  0  0  0  0
    5.4627   11.1185   -4.0098 C   0  0  0  0  0  0  0  0  0  0  0  0
    4.2063   11.5767   -4.7504 C   0  0  0  0  0  0  0  0  0  0  0  0
    7.1006    5.0083   -2.5591 C   0  0  3  0  0  3  0  0  0  0  0  0
    5.7055    4.8825   -2.5174 N   0  0  0  0  0  0  0  0  0  0  0  0
    5.2374    4.6354   -1.2196 C   0  0  0  0  0  0  0  0  0  0  0  0
    4.0990    4.6961   -0.7996 O   0  0  0  0  0  0  0  0  0  0  0  0
    6.4924    4.3224   -0.4102 C   0  0  0  0  0  0  0  0  0  0  0  0
    6.7607    2.9754   -0.6745 C   0  0  0  0  0  0  0  0  0  0  0  0
    6.3020    1.6548    0.0166 C   0  0  0  0  0  0  0  0  0  0  0  0
    7.4544    0.6097    0.1229 C   0  0  0  0  0  0  0  0  0  0  0  0
    8.3532    0.8218    1.3360 C   0  0  0  0  0  0  0  0  0  0  0  0
    7.5313    0.7165    2.6061 C   0  0  0  0  0  0  0  0  0  0  0  0
    6.3795    1.7204    2.6009 C   0  0  0  0  0  0  0  0  0  0  0  0
    5.5218    1.6569    1.3407 C   0  0  0  0  0  0  0  0  0  0  0  0
    7.1599    2.6096   -2.1565 C   0  0  0  0  0  0  0  0  0  0  0  0
    7.7874    3.7406   -2.9702 C   0  0  0  0  0  0  0  0  0  0  0  0
    9.7549    5.5053    1.4763 H   0  0  0  0  0  0  0  0  0  0  0  0
    8.2616    6.4088    1.2524 H   0  0  0  0  0  0  0  0  0  0  0  0
    9.7574    6.9468    0.4634 H   0  0  0  0  0  0  0  0  0  0  0  0
    9.0141    4.1634   -0.1939 H   0  0  0  0  0  0  0  0  0  0  0  0
    9.6553    5.4005   -1.2470 H   0  0  0  0  0  0  0  0  0  0  0  0
    8.2503    7.3895   -1.7037 H   0  0  0  0  0  0  0  0  0  0  0  0
    7.2251    7.5245   -0.2854 H   0  0  0  0  0  0  0  0  0  0  0  0
    5.2477    7.6818   -1.6529 H   0  0  0  0  0  0  0  0  0  0  0  0
    6.0915    7.1655   -3.1179 H   0  0  0  0  0  0  0  0  0  0  0  0
    7.3917    9.1729   -3.2817 H   0  0  0  0  0  0  0  0  0  0  0  0
    6.6852    9.8183   -1.7946 H   0  0  0  0  0  0  0  0  0  0  0  0
    4.3969    9.6523   -2.8495 H   0  0  0  0  0  0  0  0  0  0  0  0
    5.1223    9.0218   -4.3261 H   0  0  0  0  0  0  0  0  0  0  0  0
    6.3160   11.1708   -4.6959 H   0  0  0  0  0  0  0  0  0  0  0  0
    5.6606   11.8127   -3.1858 H   0  0  0  0  0  0  0  0  0  0  0  0
    3.9929   10.9290   -5.6076 H   0  0  0  0  0  0  0  0  0  0  0  0
    4.3268   12.5989   -5.1245 H   0  0  0  0  0  0  0  0  0  0  0  0
    3.3327   11.5630   -4.0897 H   0  0  0  0  0  0  0  0  0  0  0  0
    5.0654    5.2068   -3.2319 H   0  0  0  0  0  0  0  0  0  0  0  0
    5.5885    1.2211   -0.7072 H   0  0  0  0  0  0  0  0  0  0  0  0
    8.0940    0.5710   -0.7591 H   0  0  0  0  0  0  0  0  0  0  0  0
    7.0107   -0.3939    0.1850 H   0  0  0  0  0  0  0  0  0  0  0  0
    8.8422    1.7987    1.2758 H   0  0  0  0  0  0  0  0  0  0  0  0
    9.1487    0.0547    1.3433 H   0  0  0  0  0  0  0  0  0  0  0  0
    8.1747    0.8848    3.4766 H   0  0  0  0  0  0  0  0  0  0  0  0
    7.1358   -0.3033    2.6992 H   0  0  0  0  0  0  0  0  0  0  0  0
    6.7887    2.7241    2.7036 H   0  0  0  0  0  0  0  0  0  0  0  0
    5.7523    1.5343    3.4780 H   0  0  0  0  0  0  0  0  0  0  0  0
    4.7620    2.4485    1.3528 H   0  0  0  0  0  0  0  0  0  0  0  0
    4.9660    0.7088    1.3889 H   0  0  0  0  0  0  0  0  0  0  0  0
    6.2338    2.2868   -2.6643 H   0  0  0  0  0  0  0  0  0  0  0  0
    7.8370    1.7618   -2.2231 H   0  0  0  0  0  0  0  0  0  0  0  0
    7.6678    3.5671   -4.0408 H   0  0  0  0  0  0  0  0  0  0  0  0
    8.8584    3.7955   -2.7602 H   0  0  0  0  0  0  0  0  0  0  0  0
  1  2  1  0  0  0  0
  1 24  1  0  0  0  0
  1 25  1  0  0  0  0
  1 26  1  0  0  0  0
  2  3  1  0  0  0  0
  2 27  1  0  0  0  0
  2 28  1  0  0  0  0
  3  4  1  0  0  0  0
  3 10  1  0  0  0  0
  3 14  1  0  0  0  0
  4  5  1  0  0  0  0
  4 29  1  0  0  0  0
  4 30  1  0  0  0  0
  5  6  1  0  0  0  0
  5 31  1  0  0  0  0
  5 32  1  0  0  0  0
  6  7  1  0  0  0  0
  6 33  1  0  0  0  0
  6 34  1  0  0  0  0
  7  8  1  0  0  0  0
  7 35  1  0  0  0  0
  7 36  1  0  0  0  0
  8  9  1  0  0  0  0
  8 37  1  0  0  0  0
  8 38  1  0  0  0  0
  9 39  1  0  0  0  0
  9 40  1  0  0  0  0
  9 41  1  0  0  0  0
 10 11  1  0  0  0  0
 10 23  1  0  0  0  0
 11 12  1  0  0  0  0
 11 42  1  0  0  0  0
 12 13  2  0  0  0  0
 12 14  1  0  0  0  0
 14 15  2  0  0  0  0
 15 16  1  0  0  0  0
 15 22  1  0  0  0  0
 16 17  1  0  0  0  0
 16 21  1  0  0  0  0
 16 43  1  0  0  0  0
 17 18  1  0  0  0  0
 17 44  1  0  0  0  0
 17 45  1  0  0  0  0
 18 19  1  0  0  0  0
 18 46  1  0  0  0  0
 18 47  1  0  0  0  0
 19 20  1  0  0  0  0
 19 48  1  0  0  0  0
 19 49  1  0  0  0  0
 20 21  1  0  0  0  0
 20 50  1  0  0  0  0
 20 51  1  0  0  0  0
 21 52  1  0  0  0  0
 21 53  1  0  0  0  0
 22 23  1  0  0  0  0
 22 54  1  0  0  0  0
 22 55  1  0  0  0  0
 23 56  1  0  0  0  0
 23 57  1  0  0  0  0
M  END
$$$$
