
 OpenBabel04232216433D

 47 49  0  0  0  0  0  0  0  0999 V2000
    7.0174    1.1965   -1.3259 C   0  0  0  0  0  0  0  0  0  0  0  0
    7.6255    1.6119   -0.0257 C   0  0  0  0  0  0  0  0  0  0  0  0
    7.8836    0.9181    1.1005 C   0  0  0  0  0  0  0  0  0  0  0  0
    7.6459   -0.4891    1.3682 C   0  0  0  0  0  0  0  0  0  0  0  0
    6.5298   -1.1184    0.9896 C   0  0  0  0  0  0  0  0  0  0  0  0
    5.1532   -1.1201    1.4530 C   0  0  0  0  0  0  0  0  0  0  0  0
    4.2944   -0.1171    1.7424 C   0  0  0  0  0  0  0  0  0  0  0  0
    4.7159    1.2861    1.9380 C   0  0  0  0  0  0  0  0  0  0  0  0
    2.7715   -0.2910    1.5767 C   0  0  0  0  0  0  0  0  0  0  0  0
    1.7745    0.2901    2.1517 N   0  0  0  0  0  0  0  0  0  0  0  0
    1.7018    1.3686    2.9992 C   0  0  0  0  0  0  0  0  0  0  0  0
    0.9313    1.2239    4.0343 N   0  0  0  0  0  0  0  0  0  0  0  0
    0.1071    2.3288    4.3708 N   0  0  0  0  0  0  0  0  0  0  0  0
    0.5020    3.5154    4.4122 N   0  0  0  0  0  0  0  0  0  0  0  0
    1.8643    3.7389    4.5399 N   0  0  0  0  0  0  0  0  0  0  0  0
    2.5114    3.6351    3.4835 N   0  0  0  0  0  0  0  0  0  0  0  0
    2.0834    2.7467    2.5159 C   0  0  0  0  0  0  0  0  0  0  0  0
    1.7449    3.1936    1.2982 C   0  0  0  0  0  0  0  0  0  0  0  0
    1.7109    2.4086    0.0933 C   0  0  0  0  0  0  0  0  0  0  0  0
    0.7516    1.5011   -0.0787 C   0  0  0  0  0  0  0  0  0  0  0  0
    0.7028    0.5183   -0.9984 N   0  0  0  0  0  0  0  0  0  0  0  0
    1.2601   -0.6305   -0.7336 C   0  0  0  0  0  0  0  0  0  0  0  0
    2.3226   -1.0821    0.2842 C   0  0  0  0  0  0  0  0  0  0  0  0
    3.0609   -2.1223   -0.0261 N   0  0  0  0  0  0  0  0  0  0  0  0
    3.0220   -2.6330   -1.3087 C   0  0  0  0  0  0  0  0  0  0  0  0
    3.7152   -2.1168   -2.3689 C   0  0  0  0  0  0  0  0  0  0  0  0
    4.6761   -1.0139   -2.4714 C   0  0  0  0  0  0  0  0  0  0  0  0
    4.8053    0.0082   -1.6137 C   0  0  0  0  0  0  0  0  0  0  0  0
    5.6875    1.1592   -1.5722 C   0  0  0  0  0  0  0  0  0  0  0  0
    7.4198    2.0332   -1.9313 H   0  0  0  0  0  0  0  0  0  0  0  0
    7.9975    2.6393   -0.0154 H   0  0  0  0  0  0  0  0  0  0  0  0
    8.3804    1.4316    1.9263 H   0  0  0  0  0  0  0  0  0  0  0  0
    8.5793   -0.9756    1.0687 H   0  0  0  0  0  0  0  0  0  0  0  0
    6.6271   -1.6093    0.0146 H   0  0  0  0  0  0  0  0  0  0  0  0
    4.7797   -2.1425    1.3597 H   0  0  0  0  0  0  0  0  0  0  0  0
    5.7698    1.4536    1.8196 H   0  0  0  0  0  0  0  0  0  0  0  0
    4.4905    1.6078    2.9533 H   0  0  0  0  0  0  0  0  0  0  0  0
    4.2394    1.9156    1.1907 H   0  0  0  0  0  0  0  0  0  0  0  0
    1.5030    4.2419    1.1936 H   0  0  0  0  0  0  0  0  0  0  0  0
    2.5706    2.4868   -0.5676 H   0  0  0  0  0  0  0  0  0  0  0  0
   -0.0847    1.4950    0.6155 H   0  0  0  0  0  0  0  0  0  0  0  0
    0.9273   -1.4397   -1.4020 H   0  0  0  0  0  0  0  0  0  0  0  0
    2.4044   -3.5167   -1.4617 H   0  0  0  0  0  0  0  0  0  0  0  0
    3.5464   -2.6505   -3.3067 H   0  0  0  0  0  0  0  0  0  0  0  0
    5.2889   -1.0514   -3.3672 H   0  0  0  0  0  0  0  0  0  0  0  0
    4.0917    0.0716   -0.8160 H   0  0  0  0  0  0  0  0  0  0  0  0
    5.1270    2.0359   -1.2385 H   0  0  0  0  0  0  0  0  0  0  0  0
  1  2  1  0  0  0  0
  1 29  2  3  0  0  0
  1 30  1  0  0  0  0
  2  3  2  3  0  0  0
  2 31  1  0  0  0  0
  3  4  1  0  0  0  0
  3 32  1  0  0  0  0
  4  5  2  3  0  0  0
  4 33  1  0  0  0  0
  5  6  1  0  0  0  0
  5 34  1  0  0  0  0
  6  7  2  3  0  0  0
  6 35  1  0  0  0  0
  7  8  1  0  0  0  0
  7  9  1  0  0  0  0
  8 36  1  0  0  0  0
  8 37  1  0  0  0  0
  8 38  1  0  0  0  0
  9 10  2  0  0  0  0
  9 23  1  0  0  0  0
 10 11  1  0  0  0  0
 11 12  2  0  0  0  0
 11 17  1  0  0  0  0
 12 13  1  0  0  0  0
 13 14  2  0  0  0  0
 14 15  1  0  0  0  0
 15 16  2  0  0  0  0
 16 17  1  0  0  0  0
 17 18  2  0  0  0  0
 18 19  1  0  0  0  0
 18 39  1  0  0  0  0
 19 20  2  0  0  0  0
 19 40  1  0  0  0  0
 20 21  1  0  0  0  0
 20 41  1  0  0  0  0
 21 22  2  0  0  0  0
 22 23  1  0  0  0  0
 22 42  1  0  0  0  0
 23 24  2  3  0  0  0
 24 25  1  0  0  0  0
 25 26  2  3  0  0  0
 25 43  1  0  0  0  0
 26 27  1  0  0  0  0
 26 44  1  0  0  0  0
 27 28  2  3  0  0  0
 27 45  1  0  0  0  0
 28 29  1  0  0  0  0
 28 46  1  0  0  0  0
 29 47  1  0  0  0  0
M  END
$$$$
