
 OpenBabel04232216423D

 43 44  0  0  1  0  0  0  0  0999 V2000
   -2.1742   -1.9329    1.8350 C   0  0  0  0  0  0  0  0  0  0  0  0
   -1.9540   -0.9491    0.8972 C   0  0  0  0  0  0  0  0  0  0  0  0
   -2.0600   -1.2075   -0.5175 C   0  0  0  0  0  0  0  0  0  0  0  0
   -1.6682   -2.3884   -0.9638 C   0  0  0  0  0  0  0  0  0  0  0  0
   -0.7283   -3.2567   -0.0557 C   0  0  3  0  0  0  0  0  0  0  0  0
    0.6424   -3.0815   -0.7695 C   0  0  0  0  0  0  0  0  0  0  0  0
    1.9640   -3.0989    0.0304 C   0  0  0  0  0  0  0  0  0  0  0  0
    2.5158   -4.4899    0.2513 C   0  0  0  0  0  0  0  0  0  0  0  0
    2.6742   -5.2315   -1.0663 C   0  0  0  0  0  0  0  0  0  0  0  0
   -2.2142   -3.0511   -2.0209 N   0  0  0  0  0  0  0  0  0  0  0  0
   -3.4522   -3.2087   -1.7260 C   0  0  0  0  0  0  0  0  0  0  0  0
   -4.1607   -4.1966   -2.3241 N   0  0  0  0  0  0  0  0  0  0  0  0
   -4.9300   -4.7501   -1.4365 C   0  0  0  0  0  0  0  0  0  0  0  0
   -5.6245   -5.8456   -1.8076 N   0  0  0  0  0  0  0  0  0  0  0  0
   -6.6104   -5.9649   -1.0632 N   0  0  0  0  0  0  0  0  0  0  0  0
   -7.2144   -7.1507   -1.3759 N   0  0  0  0  0  0  0  0  0  0  0  0
   -7.1656   -8.0346   -0.5072 N   0  0  0  0  0  0  0  0  0  0  0  0
   -6.8375   -7.7350    0.7851 N   0  0  0  0  0  0  0  0  0  0  0  0
   -5.6583   -7.4309    1.2217 C   0  0  0  0  0  0  0  0  0  0  0  0
   -4.2254   -7.0924    0.6252 C   0  0  0  0  0  0  0  0  0  0  0  0
   -3.6891   -8.2751    0.2889 C   0  0  0  0  0  0  0  0  0  0  0  0
   -3.5012   -5.8862    1.0764 N   0  0  0  0  0  0  0  0  0  0  0  0
   -2.4328   -5.4179    0.4572 N   0  0  0  0  0  0  0  0  0  0  0  0
   -1.9324   -4.0633    0.7946 C   0  0  0  0  0  0  0  0  0  0  0  0
   -2.5784   -3.2737    1.6537 N   0  0  0  0  0  0  0  0  0  0  0  0
   -1.9299   -1.6393    2.8559 H   0  0  0  0  0  0  0  0  0  0  0  0
   -1.6060    0.0451    1.1552 H   0  0  0  0  0  0  0  0  0  0  0  0
   -2.6929   -0.5588   -1.1243 H   0  0  0  0  0  0  0  0  0  0  0  0
   -0.3515   -2.7203    0.8264 H   0  0  0  0  0  0  0  0  0  0  0  0
    0.6658   -2.0160   -1.0874 H   0  0  0  0  0  0  0  0  0  0  0  0
    0.7093   -3.6034   -1.7238 H   0  0  0  0  0  0  0  0  0  0  0  0
    1.8745   -2.5570    0.9817 H   0  0  0  0  0  0  0  0  0  0  0  0
    2.7192   -2.5245   -0.5357 H   0  0  0  0  0  0  0  0  0  0  0  0
    1.8511   -5.0357    0.9253 H   0  0  0  0  0  0  0  0  0  0  0  0
    3.4951   -4.4134    0.7401 H   0  0  0  0  0  0  0  0  0  0  0  0
    1.7077   -5.3858   -1.5542 H   0  0  0  0  0  0  0  0  0  0  0  0
    3.1117   -6.2162   -0.9020 H   0  0  0  0  0  0  0  0  0  0  0  0
    3.3152   -4.6694   -1.7556 H   0  0  0  0  0  0  0  0  0  0  0  0
   -3.9518   -2.6796   -0.8878 H   0  0  0  0  0  0  0  0  0  0  0  0
   -5.0251   -4.3807   -0.3962 H   0  0  0  0  0  0  0  0  0  0  0  0
   -5.5756   -7.6185    2.3133 H   0  0  0  0  0  0  0  0  0  0  0  0
   -3.7764   -9.0827    1.0583 H   0  0  0  0  0  0  0  0  0  0  0  0
   -4.2798   -8.8408   -0.4693 H   0  0  0  0  0  0  0  0  0  0  0  0
  1  2  2  0  0  0  0
  1 25  1  0  0  0  0
  1 26  1  0  0  0  0
  2  3  1  0  0  0  0
  2 27  1  0  0  0  0
  3  4  2  0  0  0  0
  3 28  1  0  0  0  0
  4  5  1  0  0  0  0
  4 10  1  0  0  0  0
  5  6  1  0  0  0  0
  5 24  1  0  0  0  0
  5 29  1  0  0  0  0
  6  7  1  0  0  0  0
  6 30  1  0  0  0  0
  6 31  1  0  0  0  0
  7  8  1  0  0  0  0
  7 32  1  0  0  0  0
  7 33  1  0  0  0  0
  8  9  1  0  0  0  0
  8 34  1  0  0  0  0
  8 35  1  0  0  0  0
  9 36  1  0  0  0  0
  9 37  1  0  0  0  0
  9 38  1  0  0  0  0
 10 11  2  3  0  0  0
 11 12  1  0  0  0  0
 11 39  1  0  0  0  0
 12 13  2  3  0  0  0
 13 14  1  0  0  0  0
 13 40  1  0  0  0  0
 14 15  2  3  0  0  0
 15 16  1  0  0  0  0
 16 17  2  3  0  0  0
 17 18  1  0  0  0  0
 18 19  2  3  0  0  0
 19 20  1  0  0  0  0
 19 41  1  0  0  0  0
 20 21  2  0  0  0  0
 20 22  1  0  0  0  0
 21 42  1  0  0  0  0
 21 43  1  0  0  0  0
 22 23  2  3  0  0  0
 23 24  1  0  0  0  0
 24 25  2  0  0  0  0
M  END
$$$$
