
 OpenBabel04232216473D

235235  0  0  1  0  0  0  0  0999 V2000
    2.6602  -29.1271   18.3874 C   0  0  0  0  0  0  0  0  0  0  0  0
    1.3469  -29.7048   18.7957 C   0  0  3  0  0  0  0  0  0  0  0  0
    1.0730  -30.0479   20.0791 C   0  0  0  0  0  0  0  0  0  0  0  0
    1.3330  -31.1621   19.4507 C   0  0  0  0  0  0  0  0  0  0  0  0
    1.6711  -32.0773   18.2926 C   0  0  0  0  0  0  0  0  0  0  0  0
    1.0826  -33.4990   18.3394 C   0  0  0  0  0  0  0  0  0  0  0  0
    1.4744  -34.3645   17.1141 C   0  0  0  0  0  0  0  0  0  0  0  0
    0.9820  -33.7463   15.8021 C   0  0  0  0  0  0  0  0  0  0  0  0
    1.3456  -34.5735   14.5708 C   0  0  0  0  0  0  0  0  0  0  0  0
    0.8339  -33.9029   13.2950 C   0  0  0  0  0  0  0  0  0  0  0  0
    1.1939  -34.7226   12.0622 C   0  0  0  0  0  0  0  0  0  0  0  0
    0.6794  -34.0466   10.7989 C   0  0  0  0  0  0  0  0  0  0  0  0
    1.0434  -34.8714    9.5751 C   0  0  0  0  0  0  0  0  0  0  0  0
    0.5300  -34.1968    8.3147 C   0  0  0  0  0  0  0  0  0  0  0  0
    0.8959  -35.0243    7.0954 C   0  0  0  0  0  0  0  0  0  0  0  0
    0.3818  -34.3479    5.8380 C   0  0  0  0  0  0  0  0  0  0  0  0
    0.7459  -35.1759    4.6200 C   0  0  0  0  0  0  0  0  0  0  0  0
    0.2314  -34.4989    3.3637 C   0  0  0  0  0  0  0  0  0  0  0  0
    0.5956  -35.3270    2.1462 C   0  0  0  0  0  0  0  0  0  0  0  0
    0.0811  -34.6497    0.8903 C   0  0  0  0  0  0  0  0  0  0  0  0
    0.4452  -35.4779   -0.3271 C   0  0  0  0  0  0  0  0  0  0  0  0
   -0.0692  -34.8006   -1.5829 C   0  0  0  0  0  0  0  0  0  0  0  0
    0.2950  -35.6288   -2.8002 C   0  0  0  0  0  0  0  0  0  0  0  0
   -0.2195  -34.9515   -4.0559 C   0  0  0  0  0  0  0  0  0  0  0  0
    0.1446  -35.7796   -5.2732 C   0  0  0  0  0  0  0  0  0  0  0  0
   -0.3698  -35.1024   -6.5289 C   0  0  0  0  0  0  0  0  0  0  0  0
   -0.0039  -35.9295   -7.7464 C   0  0  0  0  0  0  0  0  0  0  0  0
   -0.5184  -35.2523   -9.0021 C   0  0  0  0  0  0  0  0  0  0  0  0
   -0.1542  -36.0805  -10.2193 C   0  0  0  0  0  0  0  0  0  0  0  0
   -0.6704  -35.4041  -11.4748 C   0  0  0  0  0  0  0  0  0  0  0  0
   -0.3063  -36.2323  -12.6920 C   0  0  0  0  0  0  0  0  0  0  0  0
   -0.8208  -35.5550  -13.9476 C   0  0  0  0  0  0  0  0  0  0  0  0
   -0.4582  -36.3841  -15.1643 C   0  0  0  0  0  0  0  0  0  0  0  0
   -0.9727  -35.7034  -16.4176 C   0  0  0  0  0  0  0  0  0  0  0  0
   -0.6077  -36.5250  -17.6316 C   0  0  0  0  0  0  0  0  0  0  0  0
   -1.1241  -35.8547  -18.8952 C   0  0  0  0  0  0  0  0  0  0  0  0
   -0.7627  -36.6860  -20.1130 C   0  0  0  0  0  0  0  0  0  0  0  0
   -1.3888  -38.0680  -20.0081 C   0  0  0  0  0  0  0  0  0  0  0  0
   -1.0241  -38.8995  -21.2154 C   0  0  0  0  0  0  0  0  0  0  0  0
   -1.6501  -40.2755  -21.0977 C   0  0  0  0  0  0  0  0  0  0  0  0
   -1.2862  -41.1075  -22.3120 C   0  0  0  0  0  0  0  0  0  0  0  0
   -1.9120  -42.4843  -22.1985 C   0  0  0  0  0  0  0  0  0  0  0  0
   -1.5480  -43.3166  -23.4131 C   0  0  0  0  0  0  0  0  0  0  0  0
   -2.1738  -44.6934  -23.2996 C   0  0  0  0  0  0  0  0  0  0  0  0
   -1.8082  -45.5263  -24.5132 C   0  0  0  0  0  0  0  0  0  0  0  0
   -2.4357  -46.9025  -24.4006 C   0  0  0  0  0  0  0  0  0  0  0  0
   -2.0684  -47.7361  -25.6133 C   0  0  0  0  0  0  0  0  0  0  0  0
   -2.6943  -49.1129  -25.4998 C   0  0  0  0  0  0  0  0  0  0  0  0
   -2.3286  -49.9458  -26.7134 C   0  0  0  0  0  0  0  0  0  0  0  0
   -2.9561  -51.3220  -26.6008 C   0  0  0  0  0  0  0  0  0  0  0  0
   -2.5905  -52.1548  -27.8144 C   0  0  0  0  0  0  0  0  0  0  0  0
   -3.2179  -53.5310  -27.7019 C   0  0  0  0  0  0  0  0  0  0  0  0
   -2.8540  -54.3632  -28.9165 C   0  0  0  0  0  0  0  0  0  0  0  0
   -3.4816  -55.7394  -28.8037 C   0  0  0  0  0  0  0  0  0  0  0  0
   -3.1177  -56.5718  -30.0182 C   0  0  0  0  0  0  0  0  0  0  0  0
   -3.7467  -57.9474  -29.9069 C   0  0  0  0  0  0  0  0  0  0  0  0
   -3.3827  -58.7796  -31.1215 C   0  0  0  0  0  0  0  0  0  0  0  0
   -4.0102  -60.1558  -31.0090 C   0  0  0  0  0  0  0  0  0  0  0  0
   -3.6446  -60.9888  -32.2226 C   0  0  0  0  0  0  0  0  0  0  0  0
   -4.2737  -62.3643  -32.1110 C   0  0  0  0  0  0  0  0  0  0  0  0
   -3.9064  -63.1978  -33.3236 C   0  0  0  0  0  0  0  0  0  0  0  0
   -4.5339  -64.5740  -33.2112 C   0  0  0  0  0  0  0  0  0  0  0  0
   -4.1683  -65.4069  -34.4247 C   0  0  0  0  0  0  0  0  0  0  0  0
   -4.7974  -66.7824  -34.3132 C   0  0  0  0  0  0  0  0  0  0  0  0
   -4.4334  -67.6147  -35.5277 C   0  0  0  0  0  0  0  0  0  0  0  0
   -5.0609  -68.9909  -35.4153 C   0  0  0  0  0  0  0  0  0  0  0  0
   -4.6970  -69.8232  -36.6298 C   0  0  0  0  0  0  0  0  0  0  0  0
   -5.3260  -71.1988  -36.5184 C   0  0  0  0  0  0  0  0  0  0  0  0
   -4.9606  -72.0319  -37.7319 C   0  0  0  0  0  0  0  0  0  0  0  0
   -5.5880  -73.4083  -37.6196 C   0  0  0  0  0  0  0  0  0  0  0  0
   -5.2241  -74.2409  -38.8344 C   0  0  0  0  0  0  0  0  0  0  0  0
   -5.8531  -75.6171  -38.7233 C   0  0  0  0  0  0  0  0  0  0  0  0
   -5.4901  -76.4516  -39.9379 C   0  0  0  0  0  0  0  0  0  0  0  0
   -6.1181  -77.8295  -39.8258 C   0  0  0  0  0  0  0  0  0  0  0  0
   -5.7584  -78.6673  -41.0408 C   0  0  0  0  0  0  0  0  0  0  0  0
   -6.3865  -80.0482  -40.9315 C   0  0  0  0  0  0  0  0  0  0  0  0
   -6.0276  -80.8889  -42.1474 C   0  0  0  0  0  0  0  0  0  0  0  0
   -6.6516  -82.2737  -42.0502 C   0  0  0  0  0  0  0  0  0  0  0  0
   -6.2861  -83.1008  -43.2680 C   0  0  0  0  0  0  0  0  0  0  0  0
    2.5779  -28.0436   18.2776 H   0  0  0  0  0  0  0  0  0  0  0  0
    2.9657  -29.5458   17.4237 H   0  0  0  0  0  0  0  0  0  0  0  0
    3.4473  -29.3379   19.1184 H   0  0  0  0  0  0  0  0  0  0  0  0
    0.5282  -29.5148   18.1117 H   0  0  0  0  0  0  0  0  0  0  0  0
    0.8358  -29.5807   21.0171 H   0  0  0  0  0  0  0  0  0  0  0  0
    2.7604  -32.1808   18.2441 H   0  0  0  0  0  0  0  0  0  0  0  0
    1.3462  -31.5984   17.3631 H   0  0  0  0  0  0  0  0  0  0  0  0
   -0.0101  -33.4428   18.3931 H   0  0  0  0  0  0  0  0  0  0  0  0
    1.4304  -34.0052   19.2489 H   0  0  0  0  0  0  0  0  0  0  0  0
    1.0491  -35.3727   17.2224 H   0  0  0  0  0  0  0  0  0  0  0  0
    2.5645  -34.4934   17.0778 H   0  0  0  0  0  0  0  0  0  0  0  0
    1.4151  -32.7495   15.6869 H   0  0  0  0  0  0  0  0  0  0  0  0
   -0.1060  -33.6239   15.8483 H   0  0  0  0  0  0  0  0  0  0  0  0
    0.9125  -35.5771   14.6522 H   0  0  0  0  0  0  0  0  0  0  0  0
    2.4343  -34.6918   14.5060 H   0  0  0  0  0  0  0  0  0  0  0  0
    1.2639  -32.8973   13.2019 H   0  0  0  0  0  0  0  0  0  0  0  0
   -0.2558  -33.7824   13.3469 H   0  0  0  0  0  0  0  0  0  0  0  0
    0.7619  -35.7281   12.1425 H   0  0  0  0  0  0  0  0  0  0  0  0
    2.2828  -34.8418   11.9973 H   0  0  0  0  0  0  0  0  0  0  0  0
    1.1111  -33.0420   10.7089 H   0  0  0  0  0  0  0  0  0  0  0  0
   -0.4099  -33.9284   10.8540 H   0  0  0  0  0  0  0  0  0  0  0  0
    0.6119  -35.8763    9.6600 H   0  0  0  0  0  0  0  0  0  0  0  0
    2.1322  -34.9903    9.5150 H   0  0  0  0  0  0  0  0  0  0  0  0
    0.9617  -33.1922    8.2258 H   0  0  0  0  0  0  0  0  0  0  0  0
   -0.5592  -34.0786    8.3709 H   0  0  0  0  0  0  0  0  0  0  0  0
    0.4644  -36.0292    7.1814 H   0  0  0  0  0  0  0  0  0  0  0  0
    1.9849  -35.1431    7.0363 H   0  0  0  0  0  0  0  0  0  0  0  0
    0.8145  -33.3437    5.7498 H   0  0  0  0  0  0  0  0  0  0  0  0
   -0.7071  -34.2281    5.8962 H   0  0  0  0  0  0  0  0  0  0  0  0
    0.3130  -36.1802    4.7072 H   0  0  0  0  0  0  0  0  0  0  0  0
    1.8347  -35.2958    4.5607 H   0  0  0  0  0  0  0  0  0  0  0  0
    0.6642  -33.4947    3.2759 H   0  0  0  0  0  0  0  0  0  0  0  0
   -0.8574  -34.3791    3.4224 H   0  0  0  0  0  0  0  0  0  0  0  0
    0.1627  -36.3311    2.2336 H   0  0  0  0  0  0  0  0  0  0  0  0
    1.6844  -35.4467    2.0872 H   0  0  0  0  0  0  0  0  0  0  0  0
    0.5139  -33.6455    0.8027 H   0  0  0  0  0  0  0  0  0  0  0  0
   -1.0078  -34.5299    0.9491 H   0  0  0  0  0  0  0  0  0  0  0  0
    0.0124  -36.4820   -0.2395 H   0  0  0  0  0  0  0  0  0  0  0  0
    1.5341  -35.5976   -0.3860 H   0  0  0  0  0  0  0  0  0  0  0  0
    0.3636  -33.7965   -1.6705 H   0  0  0  0  0  0  0  0  0  0  0  0
   -1.1581  -34.6809   -1.5240 H   0  0  0  0  0  0  0  0  0  0  0  0
   -0.1379  -36.6330   -2.7126 H   0  0  0  0  0  0  0  0  0  0  0  0
    1.3838  -35.7486   -2.8591 H   0  0  0  0  0  0  0  0  0  0  0  0
    0.2133  -33.9473   -4.1435 H   0  0  0  0  0  0  0  0  0  0  0  0
   -1.3084  -34.8317   -3.9970 H   0  0  0  0  0  0  0  0  0  0  0  0
   -0.2882  -36.7838   -5.1857 H   0  0  0  0  0  0  0  0  0  0  0  0
    1.2335  -35.8994   -5.3321 H   0  0  0  0  0  0  0  0  0  0  0  0
    0.0619  -34.0976   -6.6158 H   0  0  0  0  0  0  0  0  0  0  0  0
   -1.4589  -34.9839   -6.4707 H   0  0  0  0  0  0  0  0  0  0  0  0
   -0.4356  -36.9342   -7.6595 H   0  0  0  0  0  0  0  0  0  0  0  0
    1.0851  -36.0480   -7.8047 H   0  0  0  0  0  0  0  0  0  0  0  0
   -0.0856  -34.2481   -9.0897 H   0  0  0  0  0  0  0  0  0  0  0  0
   -1.6073  -35.1325   -8.9433 H   0  0  0  0  0  0  0  0  0  0  0  0
   -0.5858  -37.0851  -10.1311 H   0  0  0  0  0  0  0  0  0  0  0  0
    0.9347  -36.1990  -10.2790 H   0  0  0  0  0  0  0  0  0  0  0  0
   -0.2387  -34.3996  -11.5629 H   0  0  0  0  0  0  0  0  0  0  0  0
   -1.7594  -35.2857  -11.4151 H   0  0  0  0  0  0  0  0  0  0  0  0
   -0.7391  -37.2365  -12.6044 H   0  0  0  0  0  0  0  0  0  0  0  0
    0.7826  -36.3521  -12.7509 H   0  0  0  0  0  0  0  0  0  0  0  0
   -0.3868  -34.5514  -14.0360 H   0  0  0  0  0  0  0  0  0  0  0  0
   -1.9094  -35.4340  -13.8882 H   0  0  0  0  0  0  0  0  0  0  0  0
   -0.8925  -37.3877  -15.0763 H   0  0  0  0  0  0  0  0  0  0  0  0
    0.6304  -36.5050  -15.2242 H   0  0  0  0  0  0  0  0  0  0  0  0
   -0.5378  -34.7037  -16.5081 H   0  0  0  0  0  0  0  0  0  0  0  0
   -2.0613  -35.5873  -16.3607 H   0  0  0  0  0  0  0  0  0  0  0  0
   -1.0453  -37.5220  -17.5185 H   0  0  0  0  0  0  0  0  0  0  0  0
    0.4787  -36.6543  -17.6963 H   0  0  0  0  0  0  0  0  0  0  0  0
   -0.6878  -34.8540  -18.9869 H   0  0  0  0  0  0  0  0  0  0  0  0
   -2.2125  -35.7370  -18.8360 H   0  0  0  0  0  0  0  0  0  0  0  0
    0.3271  -36.7760  -20.1908 H   0  0  0  0  0  0  0  0  0  0  0  0
   -1.1191  -36.1874  -21.0211 H   0  0  0  0  0  0  0  0  0  0  0  0
   -2.4772  -37.9776  -19.9174 H   0  0  0  0  0  0  0  0  0  0  0  0
   -1.0319  -38.5850  -19.1117 H   0  0  0  0  0  0  0  0  0  0  0  0
    0.0658  -38.9893  -21.2895 H   0  0  0  0  0  0  0  0  0  0  0  0
   -1.3784  -38.4019  -22.1228 H   0  0  0  0  0  0  0  0  0  0  0  0
   -2.7403  -40.1844  -21.0205 H   0  0  0  0  0  0  0  0  0  0  0  0
   -1.2969  -40.7717  -20.1856 H   0  0  0  0  0  0  0  0  0  0  0  0
   -0.1960  -41.1984  -22.3890 H   0  0  0  0  0  0  0  0  0  0  0  0
   -1.6394  -40.6111  -23.2239 H   0  0  0  0  0  0  0  0  0  0  0  0
   -3.0021  -42.3935  -22.1215 H   0  0  0  0  0  0  0  0  0  0  0  0
   -1.5587  -42.9807  -21.2866 H   0  0  0  0  0  0  0  0  0  0  0  0
   -0.4579  -43.4074  -23.4900 H   0  0  0  0  0  0  0  0  0  0  0  0
   -1.9012  -42.8202  -24.3249 H   0  0  0  0  0  0  0  0  0  0  0  0
   -3.2641  -44.6026  -23.2241 H   0  0  0  0  0  0  0  0  0  0  0  0
   -1.8217  -45.1893  -22.3870 H   0  0  0  0  0  0  0  0  0  0  0  0
   -0.7180  -45.6183  -24.5879 H   0  0  0  0  0  0  0  0  0  0  0  0
   -2.1591  -45.0299  -25.4259 H   0  0  0  0  0  0  0  0  0  0  0  0
   -3.5260  -46.8106  -24.3274 H   0  0  0  0  0  0  0  0  0  0  0  0
   -2.0859  -47.3985  -23.4872 H   0  0  0  0  0  0  0  0  0  0  0  0
   -0.9781  -47.8269  -25.6874 H   0  0  0  0  0  0  0  0  0  0  0  0
   -2.4194  -47.2408  -26.5266 H   0  0  0  0  0  0  0  0  0  0  0  0
   -3.7845  -49.0222  -25.4243 H   0  0  0  0  0  0  0  0  0  0  0  0
   -2.3422  -49.6088  -24.5872 H   0  0  0  0  0  0  0  0  0  0  0  0
   -1.2384  -50.0378  -26.7881 H   0  0  0  0  0  0  0  0  0  0  0  0
   -2.6795  -49.4494  -27.6261 H   0  0  0  0  0  0  0  0  0  0  0  0
   -4.0463  -51.2300  -26.5261 H   0  0  0  0  0  0  0  0  0  0  0  0
   -2.6053  -51.8185  -25.6881 H   0  0  0  0  0  0  0  0  0  0  0  0
   -1.5003  -52.2468  -27.8892 H   0  0  0  0  0  0  0  0  0  0  0  0
   -2.9413  -51.6583  -28.7272 H   0  0  0  0  0  0  0  0  0  0  0  0
   -4.3081  -53.4391  -27.6254 H   0  0  0  0  0  0  0  0  0  0  0  0
   -2.8664  -54.0281  -26.7897 H   0  0  0  0  0  0  0  0  0  0  0  0
   -1.7637  -54.4547  -28.9937 H   0  0  0  0  0  0  0  0  0  0  0  0
   -3.2048  -53.8660  -29.8290 H   0  0  0  0  0  0  0  0  0  0  0  0
   -4.5719  -55.6480  -28.7262 H   0  0  0  0  0  0  0  0  0  0  0  0
   -3.1311  -56.2367  -27.8911 H   0  0  0  0  0  0  0  0  0  0  0  0
   -2.0274  -56.6645  -30.0946 H   0  0  0  0  0  0  0  0  0  0  0  0
   -3.4673  -56.0738  -30.9309 H   0  0  0  0  0  0  0  0  0  0  0  0
   -4.8370  -57.8550  -29.8299 H   0  0  0  0  0  0  0  0  0  0  0  0
   -3.3977  -58.4454  -28.9940 H   0  0  0  0  0  0  0  0  0  0  0  0
   -2.2923  -58.8709  -31.1994 H   0  0  0  0  0  0  0  0  0  0  0  0
   -3.7329  -58.2823  -32.0345 H   0  0  0  0  0  0  0  0  0  0  0  0
   -5.1007  -60.0646  -30.9326 H   0  0  0  0  0  0  0  0  0  0  0  0
   -3.6611  -60.6527  -30.0954 H   0  0  0  0  0  0  0  0  0  0  0  0
   -2.5541  -61.0811  -32.2982 H   0  0  0  0  0  0  0  0  0  0  0  0
   -3.9924  -60.4913  -33.1364 H   0  0  0  0  0  0  0  0  0  0  0  0
   -5.3643  -62.2719  -32.0368 H   0  0  0  0  0  0  0  0  0  0  0  0
   -3.9270  -62.8612  -31.1965 H   0  0  0  0  0  0  0  0  0  0  0  0
   -2.8158  -63.2889  -33.3987 H   0  0  0  0  0  0  0  0  0  0  0  0
   -4.2544  -62.7015  -34.2380 H   0  0  0  0  0  0  0  0  0  0  0  0
   -5.6244  -64.4828  -33.1347 H   0  0  0  0  0  0  0  0  0  0  0  0
   -4.1848  -65.0707  -32.2975 H   0  0  0  0  0  0  0  0  0  0  0  0
   -3.0778  -65.4992  -34.5004 H   0  0  0  0  0  0  0  0  0  0  0  0
   -4.5161  -64.9094  -35.3385 H   0  0  0  0  0  0  0  0  0  0  0  0
   -5.8878  -66.6900  -34.2362 H   0  0  0  0  0  0  0  0  0  0  0  0
   -4.4484  -67.2804  -33.4002 H   0  0  0  0  0  0  0  0  0  0  0  0
   -3.3430  -67.7059  -35.6056 H   0  0  0  0  0  0  0  0  0  0  0  0
   -4.7836  -67.1173  -36.4406 H   0  0  0  0  0  0  0  0  0  0  0  0
   -6.1513  -68.8996  -35.3374 H   0  0  0  0  0  0  0  0  0  0  0  0
   -4.7107  -69.4882  -34.5024 H   0  0  0  0  0  0  0  0  0  0  0  0
   -3.6066  -69.9156  -36.7068 H   0  0  0  0  0  0  0  0  0  0  0  0
   -5.0459  -69.3251  -37.5428 H   0  0  0  0  0  0  0  0  0  0  0  0
   -6.4165  -71.1063  -36.4428 H   0  0  0  0  0  0  0  0  0  0  0  0
   -4.9783  -71.6962  -35.6045 H   0  0  0  0  0  0  0  0  0  0  0  0
   -3.8700  -72.1231  -37.8082 H   0  0  0  0  0  0  0  0  0  0  0  0
   -5.3094  -71.5350  -38.6455 H   0  0  0  0  0  0  0  0  0  0  0  0
   -6.6785  -73.3174  -37.5412 H   0  0  0  0  0  0  0  0  0  0  0  0
   -5.2376  -73.9054  -36.7066 H   0  0  0  0  0  0  0  0  0  0  0  0
   -4.1336  -74.3329  -38.9112 H   0  0  0  0  0  0  0  0  0  0  0  0
   -5.5728  -73.7426  -39.7473 H   0  0  0  0  0  0  0  0  0  0  0  0
   -6.9433  -75.5238  -38.6455 H   0  0  0  0  0  0  0  0  0  0  0  0
   -5.5040  -76.1143  -37.8099 H   0  0  0  0  0  0  0  0  0  0  0  0
   -4.3996  -76.5420  -40.0156 H   0  0  0  0  0  0  0  0  0  0  0  0
   -5.8401  -75.9536  -40.8505 H   0  0  0  0  0  0  0  0  0  0  0  0
   -7.2081  -77.7354  -39.7453 H   0  0  0  0  0  0  0  0  0  0  0  0
   -5.7667  -78.3248  -38.9122 H   0  0  0  0  0  0  0  0  0  0  0  0
   -4.6677  -78.7565  -41.1195 H   0  0  0  0  0  0  0  0  0  0  0  0
   -6.1084  -78.1676  -41.9525 H   0  0  0  0  0  0  0  0  0  0  0  0
   -7.4764  -79.9539  -40.8508 H   0  0  0  0  0  0  0  0  0  0  0  0
   -6.0364  -80.5435  -40.0175 H   0  0  0  0  0  0  0  0  0  0  0  0
   -4.9368  -80.9763  -42.2263 H   0  0  0  0  0  0  0  0  0  0  0  0
   -6.3791  -80.3923  -43.0601 H   0  0  0  0  0  0  0  0  0  0  0  0
   -7.7420  -82.1866  -41.9779 H   0  0  0  0  0  0  0  0  0  0  0  0
   -6.3021  -82.7785  -41.1421 H   0  0  0  0  0  0  0  0  0  0  0  0
   -6.6463  -82.6216  -44.1842 H   0  0  0  0  0  0  0  0  0  0  0  0
   -6.7341  -84.0954  -43.1996 H   0  0  0  0  0  0  0  0  0  0  0  0
   -5.2001  -83.2148  -43.3466 H   0  0  0  0  0  0  0  0  0  0  0  0
  1  2  1  0  0  0  0
  1 80  1  0  0  0  0
  1 81  1  0  0  0  0
  1 82  1  0  0  0  0
  2  3  1  0  0  0  0
  2  4  1  0  0  0  0
  2 83  1  0  0  0  0
  3  4  2  0  0  0  0
  3 84  1  0  0  0  0
  4  5  1  0  0  0  0
  5  6  1  0  0  0  0
  5 85  1  0  0  0  0
  5 86  1  0  0  0  0
  6  7  1  0  0  0  0
  6 87  1  0  0  0  0
  6 88  1  0  0  0  0
  7  8  1  0  0  0  0
  7 89  1  0  0  0  0
  7 90  1  0  0  0  0
  8  9  1  0  0  0  0
  8 91  1  0  0  0  0
  8 92  1  0  0  0  0
  9 10  1  0  0  0  0
  9 93  1  0  0  0  0
  9 94  1  0  0  0  0
 10 11  1  0  0  0  0
 10 95  1  0  0  0  0
 10 96  1  0  0  0  0
 11 12  1  0  0  0  0
 11 97  1  0  0  0  0
 11 98  1  0  0  0  0
 12 13  1  0  0  0  0
 12 99  1  0  0  0  0
 12100  1  0  0  0  0
 13 14  1  0  0  0  0
 13101  1  0  0  0  0
 13102  1  0  0  0  0
 14 15  1  0  0  0  0
 14103  1  0  0  0  0
 14104  1  0  0  0  0
 15 16  1  0  0  0  0
 15105  1  0  0  0  0
 15106  1  0  0  0  0
 16 17  1  0  0  0  0
 16107  1  0  0  0  0
 16108  1  0  0  0  0
 17 18  1  0  0  0  0
 17109  1  0  0  0  0
 17110  1  0  0  0  0
 18 19  1  0  0  0  0
 18111  1  0  0  0  0
 18112  1  0  0  0  0
 19 20  1  0  0  0  0
 19113  1  0  0  0  0
 19114  1  0  0  0  0
 20 21  1  0  0  0  0
 20115  1  0  0  0  0
 20116  1  0  0  0  0
 21 22  1  0  0  0  0
 21117  1  0  0  0  0
 21118  1  0  0  0  0
 22 23  1  0  0  0  0
 22119  1  0  0  0  0
 22120  1  0  0  0  0
 23 24  1  0  0  0  0
 23121  1  0  0  0  0
 23122  1  0  0  0  0
 24 25  1  0  0  0  0
 24123  1  0  0  0  0
 24124  1  0  0  0  0
 25 26  1  0  0  0  0
 25125  1  0  0  0  0
 25126  1  0  0  0  0
 26 27  1  0  0  0  0
 26127  1  0  0  0  0
 26128  1  0  0  0  0
 27 28  1  0  0  0  0
 27129  1  0  0  0  0
 27130  1  0  0  0  0
 28 29  1  0  0  0  0
 28131  1  0  0  0  0
 28132  1  0  0  0  0
 29 30  1  0  0  0  0
 29133  1  0  0  0  0
 29134  1  0  0  0  0
 30 31  1  0  0  0  0
 30135  1  0  0  0  0
 30136  1  0  0  0  0
 31 32  1  0  0  0  0
 31137  1  0  0  0  0
 31138  1  0  0  0  0
 32 33  1  0  0  0  0
 32139  1  0  0  0  0
 32140  1  0  0  0  0
 33 34  1  0  0  0  0
 33141  1  0  0  0  0
 33142  1  0  0  0  0
 34 35  1  0  0  0  0
 34143  1  0  0  0  0
 34144  1  0  0  0  0
 35 36  1  0  0  0  0
 35145  1  0  0  0  0
 35146  1  0  0  0  0
 36 37  1  0  0  0  0
 36147  1  0  0  0  0
 36148  1  0  0  0  0
 37 38  1  0  0  0  0
 37149  1  0  0  0  0
 37150  1  0  0  0  0
 38 39  1  0  0  0  0
 38151  1  0  0  0  0
 38152  1  0  0  0  0
 39 40  1  0  0  0  0
 39153  1  0  0  0  0
 39154  1  0  0  0  0
 40 41  1  0  0  0  0
 40155  1  0  0  0  0
 40156  1  0  0  0  0
 41 42  1  0  0  0  0
 41157  1  0  0  0  0
 41158  1  0  0  0  0
 42 43  1  0  0  0  0
 42159  1  0  0  0  0
 42160  1  0  0  0  0
 43 44  1  0  0  0  0
 43161  1  0  0  0  0
 43162  1  0  0  0  0
 44 45  1  0  0  0  0
 44163  1  0  0  0  0
 44164  1  0  0  0  0
 45 46  1  0  0  0  0
 45165  1  0  0  0  0
 45166  1  0  0  0  0
 46 47  1  0  0  0  0
 46167  1  0  0  0  0
 46168  1  0  0  0  0
 47 48  1  0  0  0  0
 47169  1  0  0  0  0
 47170  1  0  0  0  0
 48 49  1  0  0  0  0
 48171  1  0  0  0  0
 48172  1  0  0  0  0
 49 50  1  0  0  0  0
 49173  1  0  0  0  0
 49174  1  0  0  0  0
 50 51  1  0  0  0  0
 50175  1  0  0  0  0
 50176  1  0  0  0  0
 51 52  1  0  0  0  0
 51177  1  0  0  0  0
 51178  1  0  0  0  0
 52 53  1  0  0  0  0
 52179  1  0  0  0  0
 52180  1  0  0  0  0
 53 54  1  0  0  0  0
 53181  1  0  0  0  0
 53182  1  0  0  0  0
 54 55  1  0  0  0  0
 54183  1  0  0  0  0
 54184  1  0  0  0  0
 55 56  1  0  0  0  0
 55185  1  0  0  0  0
 55186  1  0  0  0  0
 56 57  1  0  0  0  0
 56187  1  0  0  0  0
 56188  1  0  0  0  0
 57 58  1  0  0  0  0
 57189  1  0  0  0  0
 57190  1  0  0  0  0
 58 59  1  0  0  0  0
 58191  1  0  0  0  0
 58192  1  0  0  0  0
 59 60  1  0  0  0  0
 59193  1  0  0  0  0
 59194  1  0  0  0  0
 60 61  1  0  0  0  0
 60195  1  0  0  0  0
 60196  1  0  0  0  0
 61 62  1  0  0  0  0
 61197  1  0  0  0  0
 61198  1  0  0  0  0
 62 63  1  0  0  0  0
 62199  1  0  0  0  0
 62200  1  0  0  0  0
 63 64  1  0  0  0  0
 63201  1  0  0  0  0
 63202  1  0  0  0  0
 64 65  1  0  0  0  0
 64203  1  0  0  0  0
 64204  1  0  0  0  0
 65 66  1  0  0  0  0
 65205  1  0  0  0  0
 65206  1  0  0  0  0
 66 67  1  0  0  0  0
 66207  1  0  0  0  0
 66208  1  0  0  0  0
 67 68  1  0  0  0  0
 67209  1  0  0  0  0
 67210  1  0  0  0  0
 68 69  1  0  0  0  0
 68211  1  0  0  0  0
 68212  1  0  0  0  0
 69 70  1  0  0  0  0
 69213  1  0  0  0  0
 69214  1  0  0  0  0
 70 71  1  0  0  0  0
 70215  1  0  0  0  0
 70216  1  0  0  0  0
 71 72  1  0  0  0  0
 71217  1  0  0  0  0
 71218  1  0  0  0  0
 72 73  1  0  0  0  0
 72219  1  0  0  0  0
 72220  1  0  0  0  0
 73 74  1  0  0  0  0
 73221  1  0  0  0  0
 73222  1  0  0  0  0
 74 75  1  0  0  0  0
 74223  1  0  0  0  0
 74224  1  0  0  0  0
 75 76  1  0  0  0  0
 75225  1  0  0  0  0
 75226  1  0  0  0  0
 76 77  1  0  0  0  0
 76227  1  0  0  0  0
 76228  1  0  0  0  0
 77 78  1  0  0  0  0
 77229  1  0  0  0  0
 77230  1  0  0  0  0
 78 79  1  0  0  0  0
 78231  1  0  0  0  0
 78232  1  0  0  0  0
 79233  1  0  0  0  0
 79234  1  0  0  0  0
 79235  1  0  0  0  0
M  END
$$$$
