
 OpenBabel04232216393D

 81 81  0  0  0  0  0  0  0  0999 V2000
   -5.7738   -4.7385   -3.2373 C   0  0  0  0  0  0  0  0  0  0  0  0
   -5.3165   -5.5342   -4.2035 C   0  0  0  0  0  0  0  0  0  0  0  0
   -7.1506   -6.6579   -4.9782 C   0  0  0  0  0  0  0  0  0  0  0  0
   -8.5720   -7.5877   -5.8130 C   0  0  0  0  0  0  0  0  0  0  0  0
  -10.3896   -8.6616   -6.4792 C   0  0  0  0  0  0  0  0  0  0  0  0
  -11.6924   -9.6027   -7.2691 C   0  0  0  0  0  0  0  0  0  0  0  0
  -12.5461  -11.0543   -8.2550 C   0  0  0  0  0  0  0  0  0  0  0  0
  -12.1680  -12.3136   -8.7237 C   0  0  0  0  0  0  0  0  0  0  0  0
  -10.8363  -12.9282   -9.0237 C   0  0  0  0  0  0  0  0  0  0  0  0
  -10.1296  -11.8626   -8.2654 C   0  0  0  0  0  0  0  0  0  0  0  0
   -8.7503  -11.6567   -8.0831 C   0  0  0  0  0  0  0  0  0  0  0  0
   -8.6037  -10.4541   -7.2394 C   0  0  0  0  0  0  0  0  0  0  0  0
   -7.1783  -10.3779   -7.1640 C   0  0  0  0  0  0  0  0  0  0  0  0
   -6.8189   -9.2289   -6.3665 C   0  0  0  0  0  0  0  0  0  0  0  0
   -5.3724   -9.2221   -6.3598 C   0  0  0  0  0  0  0  0  0  0  0  0
   -4.9576   -8.0652   -5.5680 C   0  0  0  0  0  0  0  0  0  0  0  0
   -3.4966   -8.1186   -5.6005 C   0  0  0  0  0  0  0  0  0  0  0  0
   -2.9986   -6.9930   -4.8215 C   0  0  0  0  0  0  0  0  0  0  0  0
   -1.5420   -7.1056   -4.8962 C   0  0  0  0  0  0  0  0  0  0  0  0
   -0.9620   -6.0320   -4.1523 C   0  0  0  0  0  0  0  0  0  0  0  0
    0.4764   -6.2678   -4.3150 C   0  0  0  0  0  0  0  0  0  0  0  0
    0.9417   -5.1882   -3.5728 C   0  0  0  0  0  0  0  0  0  0  0  0
    2.4612   -5.2447   -3.6236 C   0  0  0  0  0  0  0  0  0  0  0  0
    2.0013   -4.1964   -2.8643 C   0  0  0  0  0  0  0  0  0  0  0  0
    1.6703   -3.0796   -2.2662 C   0  0  0  0  0  0  0  0  0  0  0  0
    0.1862   -2.9333   -2.1195 C   0  0  0  0  0  0  0  0  0  0  0  0
    2.2030   -2.0718   -1.4746 C   0  0  0  0  0  0  0  0  0  0  0  0
    4.1231   -1.5691   -0.5571 C   0  0  0  0  0  0  0  0  0  0  0  0
    6.1046   -1.1017   -0.2612 C   0  0  0  0  0  0  0  0  0  0  0  0
   -3.3781   -4.6308   -3.4919 C   0  0  0  0  0  0  0  0  0  0  0  0
   -1.5905   -3.9511   -2.9584 C   0  0  0  0  0  0  0  0  0  0  0  0
   -5.3039   -3.7087   -3.3001 H   0  0  0  0  0  0  0  0  0  0  0  0
   -5.1561   -4.8993   -2.3080 H   0  0  0  0  0  0  0  0  0  0  0  0
   -7.7627   -6.7750   -4.0257 H   0  0  0  0  0  0  0  0  0  0  0  0
   -9.4148   -7.8654   -5.0787 H   0  0  0  0  0  0  0  0  0  0  0  0
  -10.2514   -9.7249   -6.5902 H   0  0  0  0  0  0  0  0  0  0  0  0
  -12.8745   -9.6202   -7.1314 H   0  0  0  0  0  0  0  0  0  0  0  0
  -13.6813  -11.7058   -8.5058 H   0  0  0  0  0  0  0  0  0  0  0  0
  -11.8680  -12.1678   -7.7408 H   0  0  0  0  0  0  0  0  0  0  0  0
  -10.7324  -12.8266  -10.1054 H   0  0  0  0  0  0  0  0  0  0  0  0
  -10.7773  -13.9025   -8.5056 H   0  0  0  0  0  0  0  0  0  0  0  0
  -10.4280  -11.9932   -7.1857 H   0  0  0  0  0  0  0  0  0  0  0  0
  -10.4576  -10.9364   -8.7729 H   0  0  0  0  0  0  0  0  0  0  0  0
   -8.4070  -11.3883   -9.0696 H   0  0  0  0  0  0  0  0  0  0  0  0
   -8.4238  -12.4995   -7.4940 H   0  0  0  0  0  0  0  0  0  0  0  0
   -8.9886  -10.5783   -6.1948 H   0  0  0  0  0  0  0  0  0  0  0  0
   -8.9477   -9.5647   -7.8091 H   0  0  0  0  0  0  0  0  0  0  0  0
   -6.8655  -10.2151   -8.1924 H   0  0  0  0  0  0  0  0  0  0  0  0
   -6.8608  -11.2920   -6.6806 H   0  0  0  0  0  0  0  0  0  0  0  0
   -7.2421   -9.3085   -5.3481 H   0  0  0  0  0  0  0  0  0  0  0  0
   -7.0858   -8.3511   -6.9650 H   0  0  0  0  0  0  0  0  0  0  0  0
   -5.0508   -9.0871   -7.3956 H   0  0  0  0  0  0  0  0  0  0  0  0
   -5.0362  -10.1459   -5.9050 H   0  0  0  0  0  0  0  0  0  0  0  0
   -5.3441   -8.1418   -4.5383 H   0  0  0  0  0  0  0  0  0  0  0  0
   -5.2852   -7.1514   -6.0828 H   0  0  0  0  0  0  0  0  0  0  0  0
   -3.1578   -7.9853   -6.6300 H   0  0  0  0  0  0  0  0  0  0  0  0
   -3.1505   -9.0387   -5.1385 H   0  0  0  0  0  0  0  0  0  0  0  0
   -3.3597   -7.0689   -3.7843 H   0  0  0  0  0  0  0  0  0  0  0  0
   -3.3165   -6.0860   -5.3486 H   0  0  0  0  0  0  0  0  0  0  0  0
   -1.1956   -6.9436   -5.9165 H   0  0  0  0  0  0  0  0  0  0  0  0
   -1.1884   -8.0063   -4.4063 H   0  0  0  0  0  0  0  0  0  0  0  0
   -1.2716   -6.0896   -3.0878 H   0  0  0  0  0  0  0  0  0  0  0  0
   -1.2231   -5.0894   -4.6657 H   0  0  0  0  0  0  0  0  0  0  0  0
    0.8646   -5.9828   -5.2881 H   0  0  0  0  0  0  0  0  0  0  0  0
    0.8715   -7.0775   -3.7167 H   0  0  0  0  0  0  0  0  0  0  0  0
    0.4829   -5.3227   -2.5134 H   0  0  0  0  0  0  0  0  0  0  0  0
    0.5058   -4.2610   -4.1093 H   0  0  0  0  0  0  0  0  0  0  0  0
    3.0461   -4.6791   -4.3569 H   0  0  0  0  0  0  0  0  0  0  0  0
    3.0486   -5.7242   -2.8288 H   0  0  0  0  0  0  0  0  0  0  0  0
    2.0270   -4.5466   -1.7743 H   0  0  0  0  0  0  0  0  0  0  0  0
    2.0366   -3.3144   -3.6882 H   0  0  0  0  0  0  0  0  0  0  0  0
    3.0232   -3.3851   -2.5426 H   0  0  0  0  0  0  0  0  0  0  0  0
    2.9348   -1.6125   -2.4417 H   0  0  0  0  0  0  0  0  0  0  0  0
    3.1669   -2.9751   -1.0966 H   0  0  0  0  0  0  0  0  0  0  0  0
    4.4838   -2.3275    0.2121 H   0  0  0  0  0  0  0  0  0  0  0  0
    4.1870   -0.4701   -0.5945 H   0  0  0  0  0  0  0  0  0  0  0  0
    7.0226   -1.8294   -0.0380 H   0  0  0  0  0  0  0  0  0  0  0  0
    6.2994   -0.5835    0.7779 H   0  0  0  0  0  0  0  0  0  0  0  0
    6.7319   -0.2825   -0.8083 H   0  0  0  0  0  0  0  0  0  0  0  0
   -3.6567   -4.1313   -2.6311 H   0  0  0  0  0  0  0  0  0  0  0  0
   -1.8307   -3.2805   -2.0269 H   0  0  0  0  0  0  0  0  0  0  0  0
  1  2  2  0  0  0  0
  1 32  1  0  0  0  0
  1 33  1  0  0  0  0
  2  3  1  0  0  0  0
  2 30  1  0  0  0  0
  3  4  2  3  0  0  0
  3 34  1  0  0  0  0
  4  5  1  0  0  0  0
  4 35  1  0  0  0  0
  5  6  2  3  0  0  0
  5 36  1  0  0  0  0
  6  7  1  0  0  0  0
  6 37  1  0  0  0  0
  7  8  2  3  0  0  0
  7 38  1  0  0  0  0
  8  9  1  0  0  0  0
  8 39  1  0  0  0  0
  9 10  1  0  0  0  0
  9 40  1  0  0  0  0
  9 41  1  0  0  0  0
 10 11  1  0  0  0  0
 10 42  1  0  0  0  0
 10 43  1  0  0  0  0
 11 12  1  0  0  0  0
 11 44  1  0  0  0  0
 11 45  1  0  0  0  0
 12 13  1  0  0  0  0
 12 46  1  0  0  0  0
 12 47  1  0  0  0  0
 13 14  1  0  0  0  0
 13 48  1  0  0  0  0
 13 49  1  0  0  0  0
 14 15  1  0  0  0  0
 14 50  1  0  0  0  0
 14 51  1  0  0  0  0
 15 16  1  0  0  0  0
 15 52  1  0  0  0  0
 15 53  1  0  0  0  0
 16 17  1  0  0  0  0
 16 54  1  0  0  0  0
 16 55  1  0  0  0  0
 17 18  1  0  0  0  0
 17 56  1  0  0  0  0
 17 57  1  0  0  0  0
 18 19  1  0  0  0  0
 18 58  1  0  0  0  0
 18 59  1  0  0  0  0
 19 20  1  0  0  0  0
 19 60  1  0  0  0  0
 19 61  1  0  0  0  0
 20 21  1  0  0  0  0
 20 62  1  0  0  0  0
 20 63  1  0  0  0  0
 21 22  1  0  0  0  0
 21 64  1  0  0  0  0
 21 65  1  0  0  0  0
 22 23  1  0  0  0  0
 22 66  1  0  0  0  0
 22 67  1  0  0  0  0
 23 24  1  0  0  0  0
 23 68  1  0  0  0  0
 23 69  1  0  0  0  0
 24 25  1  0  0  0  0
 24 70  1  0  0  0  0
 24 71  1  0  0  0  0
 25 26  2  3  0  0  0
 25 72  1  0  0  0  0
 26 27  1  0  0  0  0
 26 31  1  0  0  0  0
 27 28  1  0  0  0  0
 27 73  1  0  0  0  0
 27 74  1  0  0  0  0
 28 29  1  0  0  0  0
 28 75  1  0  0  0  0
 28 76  1  0  0  0  0
 29 77  1  0  0  0  0
 29 78  1  0  0  0  0
 29 79  1  0  0  0  0
 30 31  2  3  0  0  0
 30 80  1  0  0  0  0
 31 81  1  0  0  0  0
M  END
$$$$
