
 OpenBabel04232216523D

 61 62  0  0  1  0  0  0  0  0999 V2000
    2.3486   -1.7311   -3.3066 C   0  0  0  0  0  0  0  0  0  0  0  0
    3.4520   -0.7558   -2.9577 C   0  0  0  0  0  0  0  0  0  0  0  0
    3.1127   -0.0114   -1.6739 C   0  0  0  0  0  0  0  0  0  0  0  0
    4.2495    0.9355   -1.2666 C   0  0  0  0  0  0  0  0  0  0  0  0
    4.3218    2.3459   -1.9386 C   0  0  3  0  0  0  0  0  0  0  0  0
    5.4859    3.3545   -1.6304 C   0  0  0  0  0  0  0  0  0  0  0  0
    6.6634    2.9675   -0.9908 C   0  0  0  0  0  0  0  0  0  0  0  0
    6.9808    1.5426   -0.5228 C   0  0  0  0  0  0  0  0  0  0  0  0
    8.0048    0.9884    0.5063 C   0  0  0  0  0  0  0  0  0  0  0  0
    9.4084    0.6704    0.0086 C   0  0  0  0  0  0  0  0  0  0  0  0
   10.2503    1.9237   -0.1298 C   0  0  0  0  0  0  0  0  0  0  0  0
   11.6579    1.6228   -0.5742 C   0  0  0  0  0  0  0  0  0  0  0  0
   12.1035    0.5048   -0.7793 O   0  0  0  0  0  0  0  0  0  0  0  0
    4.9587    4.8141   -1.4242 C   0  0  0  0  0  0  0  0  0  0  0  0
    4.7919    5.0385   -0.0482 C   0  0  0  0  0  0  0  0  0  0  0  0
    3.7729    4.3778    0.5156 C   0  0  0  0  0  0  0  0  0  0  0  0
    3.5244    4.8549    1.8700 C   0  0  0  0  0  0  0  0  0  0  0  0
    2.1394    4.5987    2.3713 C   0  0  0  0  0  0  0  0  0  0  0  0
    1.3339    5.8748    2.1977 C   0  0  0  0  0  0  0  0  0  0  0  0
    0.8333    6.0936    0.7469 C   0  0  0  0  0  0  0  0  0  0  0  0
    1.7401    6.8350   -0.3281 C   0  0  0  0  0  0  0  0  0  0  0  0
    2.6385    6.3445   -1.6445 C   0  0  0  0  0  0  0  0  0  0  0  0
    4.0226    5.5355   -2.1369 C   0  0  0  0  0  0  0  0  0  0  0  0
    2.7684    3.6335   -0.3503 C   0  0  0  0  0  0  0  0  0  0  0  0
    2.9890    2.9050   -1.4707 C   0  0  0  0  0  0  0  0  0  0  0  0
    2.5930   -2.2664   -4.2299 H   0  0  0  0  0  0  0  0  0  0  0  0
    1.3974   -1.2098   -3.4507 H   0  0  0  0  0  0  0  0  0  0  0  0
    2.2161   -2.4717   -2.5095 H   0  0  0  0  0  0  0  0  0  0  0  0
    3.5994   -0.0472   -3.7793 H   0  0  0  0  0  0  0  0  0  0  0  0
    4.3908   -1.3087   -2.8296 H   0  0  0  0  0  0  0  0  0  0  0  0
    2.9893   -0.7462   -0.8665 H   0  0  0  0  0  0  0  0  0  0  0  0
    2.1496    0.4967   -1.7631 H   0  0  0  0  0  0  0  0  0  0  0  0
    5.1519    0.3571   -1.4429 H   0  0  0  0  0  0  0  0  0  0  0  0
    4.1391    1.0772   -0.1807 H   0  0  0  0  0  0  0  0  0  0  0  0
    4.3184    2.2159   -3.0315 H   0  0  0  0  0  0  0  0  0  0  0  0
    7.3443    3.7316   -0.6193 H   0  0  0  0  0  0  0  0  0  0  0  0
    7.0571    0.8872   -1.4056 H   0  0  0  0  0  0  0  0  0  0  0  0
    6.1058    1.3057    0.0617 H   0  0  0  0  0  0  0  0  0  0  0  0
    7.6042    0.0100    0.8203 H   0  0  0  0  0  0  0  0  0  0  0  0
    8.0291    1.5838    1.4258 H   0  0  0  0  0  0  0  0  0  0  0  0
    9.3715    0.1017   -0.9305 H   0  0  0  0  0  0  0  0  0  0  0  0
    9.8884   -0.0005    0.7376 H   0  0  0  0  0  0  0  0  0  0  0  0
   10.3131    2.4315    0.8349 H   0  0  0  0  0  0  0  0  0  0  0  0
    9.8165    2.6054   -0.8609 H   0  0  0  0  0  0  0  0  0  0  0  0
   12.2976    2.5094   -0.6984 H   0  0  0  0  0  0  0  0  0  0  0  0
    5.4805    5.6915    0.4754 H   0  0  0  0  0  0  0  0  0  0  0  0
    3.7094    5.9419    1.8796 H   0  0  0  0  0  0  0  0  0  0  0  0
    4.2843    4.4328    2.5399 H   0  0  0  0  0  0  0  0  0  0  0  0
    2.2113    4.3121    3.4308 H   0  0  0  0  0  0  0  0  0  0  0  0
    1.6374    3.7572    1.8803 H   0  0  0  0  0  0  0  0  0  0  0  0
    1.8896    6.7571    2.5461 H   0  0  0  0  0  0  0  0  0  0  0  0
    0.4800    5.7882    2.8829 H   0  0  0  0  0  0  0  0  0  0  0  0
   -0.0211    6.7766    0.9244 H   0  0  0  0  0  0  0  0  0  0  0  0
    0.3364    5.1983    0.3629 H   0  0  0  0  0  0  0  0  0  0  0  0
    0.9113    7.3225   -0.8844 H   0  0  0  0  0  0  0  0  0  0  0  0
    2.2337    7.6799    0.1625 H   0  0  0  0  0  0  0  0  0  0  0  0
    2.7713    7.3154   -2.1531 H   0  0  0  0  0  0  0  0  0  0  0  0
    1.8724    5.8207   -2.2432 H   0  0  0  0  0  0  0  0  0  0  0  0
    4.0016    5.4271   -3.2057 H   0  0  0  0  0  0  0  0  0  0  0  0
    1.7221    3.8881   -0.2189 H   0  0  0  0  0  0  0  0  0  0  0  0
    2.1457    2.6428   -2.0999 H   0  0  0  0  0  0  0  0  0  0  0  0
  1  2  1  0  0  0  0
  1 26  1  0  0  0  0
  1 27  1  0  0  0  0
  1 28  1  0  0  0  0
  2  3  1  0  0  0  0
  2 29  1  0  0  0  0
  2 30  1  0  0  0  0
  3  4  1  0  0  0  0
  3 31  1  0  0  0  0
  3 32  1  0  0  0  0
  4  5  1  0  0  0  0
  4 33  1  0  0  0  0
  4 34  1  0  0  0  0
  5  6  1  0  0  0  0
  5 25  1  0  0  0  0
  5 35  1  0  0  0  0
  6  7  2  3  0  0  0
  6 14  1  0  0  0  0
  7  8  1  0  0  0  0
  7 36  1  0  0  0  0
  8  9  1  0  0  0  0
  8 37  1  0  0  0  0
  8 38  1  0  0  0  0
  9 10  1  0  0  0  0
  9 39  1  0  0  0  0
  9 40  1  0  0  0  0
 10 11  1  0  0  0  0
 10 41  1  0  0  0  0
 10 42  1  0  0  0  0
 11 12  1  0  0  0  0
 11 43  1  0  0  0  0
 11 44  1  0  0  0  0
 12 13  2  0  0  0  0
 12 45  1  0  0  0  0
 14 15  1  0  0  0  0
 14 23  2  3  0  0  0
 15 16  2  0  0  0  0
 15 46  1  0  0  0  0
 16 17  1  0  0  0  0
 16 24  1  0  0  0  0
 17 18  1  0  0  0  0
 17 47  1  0  0  0  0
 17 48  1  0  0  0  0
 18 19  1  0  0  0  0
 18 49  1  0  0  0  0
 18 50  1  0  0  0  0
 19 20  1  0  0  0  0
 19 51  1  0  0  0  0
 19 52  1  0  0  0  0
 20 21  1  0  0  0  0
 20 53  1  0  0  0  0
 20 54  1  0  0  0  0
 21 22  1  0  0  0  0
 21 55  1  0  0  0  0
 21 56  1  0  0  0  0
 22 23  1  0  0  0  0
 22 57  1  0  0  0  0
 22 58  1  0  0  0  0
 23 59  1  0  0  0  0
 24 25  2  0  0  0  0
 24 60  1  0  0  0  0
 25 61  1  0  0  0  0
M  END
$$$$
