
 OpenBabel04232216573D

 78 79  0  0  0  0  0  0  0  0999 V2000
    1.9620    4.1867   -0.6077 C   0  0  0  0  0  0  0  0  0  0  0  0
    3.3016    3.7424   -0.5323 O   0  0  0  0  0  0  0  0  0  0  0  0
    4.5497    4.2390   -0.7664 C   0  0  0  0  0  0  0  0  0  0  0  0
    5.3625    3.0608   -0.7868 C   0  0  0  0  0  0  0  0  0  0  0  0
    6.3576    2.9220    0.0777 C   0  0  0  0  0  0  0  0  0  0  0  0
    7.5547    2.3108   -0.4140 C   0  0  0  0  0  0  0  0  0  0  0  0
    8.2525    3.1613   -1.1827 C   0  0  0  0  0  0  0  0  0  0  0  0
    9.6701    3.1229   -1.2357 C   0  0  0  0  0  0  0  0  0  0  0  0
   10.4347    4.2120   -1.3710 C   0  0  0  0  0  0  0  0  0  0  0  0
   11.8398    4.4569   -1.0598 C   0  0  0  0  0  0  0  0  0  0  0  0
   12.6589    3.3664   -0.7304 O   0  0  0  0  0  0  0  0  0  0  0  0
   12.0806    2.1769   -0.2652 C   0  0  0  0  0  0  0  0  0  0  0  0
   13.0479    1.2220    0.1836 N   0  0  0  0  0  0  0  0  0  0  0  0
   13.6520    1.6379    1.4234 C   0  0  0  0  0  0  0  0  0  0  0  0
   14.3996    0.3950    1.8346 C   0  0  0  0  0  0  0  0  0  0  0  0
   15.2609    0.6565    3.0410 C   0  0  0  0  0  0  0  0  0  0  0  0
   16.0104   -0.6253    3.3422 C   0  0  0  0  0  0  0  0  0  0  0  0
   16.9324   -0.4259    4.5226 C   0  0  0  0  0  0  0  0  0  0  0  0
   17.6849   -1.7163    4.8074 C   0  0  0  0  0  0  0  0  0  0  0  0
   18.6134   -1.5166    5.9946 C   0  0  0  0  0  0  0  0  0  0  0  0
   19.3252   -2.7602    6.2675 N   0  0  0  0  0  0  0  0  0  0  0  0
   20.2300   -2.5838    7.3929 C   0  0  0  0  0  0  0  0  0  0  0  0
   12.4637    5.6747   -1.0579 C   0  0  0  0  0  0  0  0  0  0  0  0
   13.8887    5.5463   -0.7029 C   0  0  0  0  0  0  0  0  0  0  0  0
   14.4582    6.1701    0.3427 C   0  0  0  0  0  0  0  0  0  0  0  0
   15.8735    6.4984    0.2329 C   0  0  0  0  0  0  0  0  0  0  0  0
   15.9872    7.8004   -0.0840 C   0  0  0  0  0  0  0  0  0  0  0  0
   15.5370    8.2551   -1.4009 C   0  0  0  0  0  0  0  0  0  0  0  0
   14.3259    8.2825   -2.0378 C   0  0  0  0  0  0  0  0  0  0  0  0
   12.8125    8.0623   -1.8326 C   0  0  0  0  0  0  0  0  0  0  0  0
   11.8968    7.0524   -1.4442 C   0  0  0  0  0  0  0  0  0  0  0  0
   10.2815    7.3538   -1.6037 C   0  0  0  0  0  0  0  0  0  0  0  0
    8.8815    7.3009   -1.6017 C   0  0  0  0  0  0  0  0  0  0  0  0
    7.6976    6.4214   -0.9553 C   0  0  0  0  0  0  0  0  0  0  0  0
    6.3810    6.2583   -1.3860 C   0  0  0  0  0  0  0  0  0  0  0  0
    5.0248    5.5168   -0.9675 C   0  0  0  0  0  0  0  0  0  0  0  0
    1.8589    5.2155   -0.9317 H   0  0  0  0  0  0  0  0  0  0  0  0
    1.4864    4.0348    0.3740 H   0  0  0  0  0  0  0  0  0  0  0  0
    1.4078    3.5233   -1.2963 H   0  0  0  0  0  0  0  0  0  0  0  0
    5.1094    2.2608   -1.4809 H   0  0  0  0  0  0  0  0  0  0  0  0
    6.5137    3.6814    0.8417 H   0  0  0  0  0  0  0  0  0  0  0  0
    7.9389    1.4082    0.0456 H   0  0  0  0  0  0  0  0  0  0  0  0
    7.7872    4.0665   -1.5443 H   0  0  0  0  0  0  0  0  0  0  0  0
    9.9622    2.1450   -0.9103 H   0  0  0  0  0  0  0  0  0  0  0  0
    9.8960    5.0929   -1.6703 H   0  0  0  0  0  0  0  0  0  0  0  0
   11.6606    1.6718   -1.1287 H   0  0  0  0  0  0  0  0  0  0  0  0
   11.3617    2.3724    0.5445 H   0  0  0  0  0  0  0  0  0  0  0  0
   13.7580    1.1380   -0.5295 H   0  0  0  0  0  0  0  0  0  0  0  0
   12.9155    1.9041    2.1903 H   0  0  0  0  0  0  0  0  0  0  0  0
   14.3238    2.4925    1.2713 H   0  0  0  0  0  0  0  0  0  0  0  0
   15.0308    0.0448    1.0056 H   0  0  0  0  0  0  0  0  0  0  0  0
   13.6828   -0.4103    2.0511 H   0  0  0  0  0  0  0  0  0  0  0  0
   14.6424    0.9601    3.8933 H   0  0  0  0  0  0  0  0  0  0  0  0
   15.9614    1.4733    2.8299 H   0  0  0  0  0  0  0  0  0  0  0  0
   16.5906   -0.9300    2.4614 H   0  0  0  0  0  0  0  0  0  0  0  0
   15.2955   -1.4318    3.5493 H   0  0  0  0  0  0  0  0  0  0  0  0
   16.3478   -0.1241    5.3999 H   0  0  0  0  0  0  0  0  0  0  0  0
   17.6391    0.3842    4.3052 H   0  0  0  0  0  0  0  0  0  0  0  0
   18.2575   -2.0116    3.9185 H   0  0  0  0  0  0  0  0  0  0  0  0
   16.9689   -2.5224    5.0131 H   0  0  0  0  0  0  0  0  0  0  0  0
   18.0220   -1.2176    6.8683 H   0  0  0  0  0  0  0  0  0  0  0  0
   19.3211   -0.7093    5.7694 H   0  0  0  0  0  0  0  0  0  0  0  0
   19.8560   -3.0366    5.4418 H   0  0  0  0  0  0  0  0  0  0  0  0
   19.6769   -2.3224    8.3009 H   0  0  0  0  0  0  0  0  0  0  0  0
   20.9722   -1.8050    7.1893 H   0  0  0  0  0  0  0  0  0  0  0  0
   20.7610   -3.5199    7.5838 H   0  0  0  0  0  0  0  0  0  0  0  0
   14.4916    5.0059   -1.4361 H   0  0  0  0  0  0  0  0  0  0  0  0
   13.8637    6.7928    1.0025 H   0  0  0  0  0  0  0  0  0  0  0  0
   16.3628    5.7862   -0.4515 H   0  0  0  0  0  0  0  0  0  0  0  0
   15.7815    8.5375    0.6946 H   0  0  0  0  0  0  0  0  0  0  0  0
   16.4112    8.6296   -1.9518 H   0  0  0  0  0  0  0  0  0  0  0  0
   14.4720    8.7294   -3.0362 H   0  0  0  0  0  0  0  0  0  0  0  0
   12.3528    8.9305   -2.2853 H   0  0  0  0  0  0  0  0  0  0  0  0
   10.3097    6.9411   -0.5585 H   0  0  0  0  0  0  0  0  0  0  0  0
    8.4247    8.0201   -2.2988 H   0  0  0  0  0  0  0  0  0  0  0  0
    8.0244    5.8906   -0.0632 H   0  0  0  0  0  0  0  0  0  0  0  0
    6.1163    6.8515   -2.2673 H   0  0  0  0  0  0  0  0  0  0  0  0
    4.2169    6.2508   -0.9812 H   0  0  0  0  0  0  0  0  0  0  0  0
  1  2  1  0  0  0  0
  1 37  1  0  0  0  0
  1 38  1  0  0  0  0
  1 39  1  0  0  0  0
  2  3  1  0  0  0  0
  3  4  1  0  0  0  0
  3 36  2  3  0  0  0
  4  5  2  3  0  0  0
  4 40  1  0  0  0  0
  5  6  1  0  0  0  0
  5 41  1  0  0  0  0
  6  7  2  3  0  0  0
  6 42  1  0  0  0  0
  7  8  1  0  0  0  0
  7 43  1  0  0  0  0
  8  9  2  3  0  0  0
  8 44  1  0  0  0  0
  9 10  1  0  0  0  0
  9 45  1  0  0  0  0
 10 11  1  0  0  0  0
 10 23  2  3  0  0  0
 11 12  1  0  0  0  0
 12 13  1  0  0  0  0
 12 46  1  0  0  0  0
 12 47  1  0  0  0  0
 13 14  1  0  0  0  0
 13 48  1  0  0  0  0
 14 15  1  0  0  0  0
 14 49  1  0  0  0  0
 14 50  1  0  0  0  0
 15 16  1  0  0  0  0
 15 51  1  0  0  0  0
 15 52  1  0  0  0  0
 16 17  1  0  0  0  0
 16 53  1  0  0  0  0
 16 54  1  0  0  0  0
 17 18  1  0  0  0  0
 17 55  1  0  0  0  0
 17 56  1  0  0  0  0
 18 19  1  0  0  0  0
 18 57  1  0  0  0  0
 18 58  1  0  0  0  0
 19 20  1  0  0  0  0
 19 59  1  0  0  0  0
 19 60  1  0  0  0  0
 20 21  1  0  0  0  0
 20 61  1  0  0  0  0
 20 62  1  0  0  0  0
 21 22  1  0  0  0  0
 21 63  1  0  0  0  0
 22 64  1  0  0  0  0
 22 65  1  0  0  0  0
 22 66  1  0  0  0  0
 23 24  1  0  0  0  0
 23 31  1  0  0  0  0
 24 25  2  3  0  0  0
 24 67  1  0  0  0  0
 25 26  1  0  0  0  0
 25 68  1  0  0  0  0
 26 27  2  3  0  0  0
 26 69  1  0  0  0  0
 27 28  1  0  0  0  0
 27 70  1  0  0  0  0
 28 29  2  3  0  0  0
 28 71  1  0  0  0  0
 29 30  1  0  0  0  0
 29 72  1  0  0  0  0
 30 31  2  3  0  0  0
 30 73  1  0  0  0  0
 31 32  1  0  0  0  0
 32 33  2  3  0  0  0
 32 74  1  0  0  0  0
 33 34  1  0  0  0  0
 33 75  1  0  0  0  0
 34 35  2  3  0  0  0
 34 76  1  0  0  0  0
 35 36  1  0  0  0  0
 35 77  1  0  0  0  0
 36 78  1  0  0  0  0
M  END
$$$$
