
 OpenBabel04232216453D

 47 47  0  0  1  0  0  0  0  0999 V2000
    0.9212   -0.1237    0.0713 C   0  0  0  0  0  0  0  0  0  0  0  0
    2.4523   -0.0861    0.1262 C   0  0  3  0  0  0  0  0  0  0  0  0
    2.9181    1.2316   -0.3847 C   0  0  0  0  0  0  0  0  0  0  0  0
    3.6550    1.6831   -1.4135 C   0  0  0  0  0  0  0  0  0  0  0  0
    3.7307    3.2151   -1.5129 C   0  0  0  0  0  0  0  0  0  0  0  0
    2.9862    4.1452   -0.5457 C   0  0  0  0  0  0  0  0  0  0  0  0
    4.3325    0.8520   -2.4785 C   0  0  0  0  0  0  0  0  0  0  0  0
    5.0304    1.5785   -3.6885 C   0  0  0  0  0  0  0  0  0  0  0  0
    5.8095    2.8862   -3.5201 C   0  0  0  0  0  0  0  0  0  0  0  0
    6.5727    3.3776   -4.7538 C   0  0  0  0  0  0  0  0  0  0  0  0
    7.1498    4.7543   -4.3982 C   0  0  0  0  0  0  0  0  0  0  0  0
    7.8845    5.4393   -5.5401 C   0  0  0  0  0  0  0  0  0  0  0  0
    8.4216    6.7847   -5.0652 C   0  0  0  0  0  0  0  0  0  0  0  0
    4.3649   -0.5144   -2.5077 C   0  0  0  0  0  0  0  0  0  0  0  0
    4.9300   -1.3223   -3.6904 C   0  0  0  0  0  0  0  0  0  0  0  0
    6.3672   -1.7939   -3.5170 C   0  0  0  0  0  0  0  0  0  0  0  0
    7.1216   -1.4984   -2.5984 O   0  0  0  0  0  0  0  0  0  0  0  0
    3.8348   -1.4621   -1.5305 C   0  0  0  0  0  0  0  0  0  0  0  0
    3.0326   -1.3062   -0.4782 C   0  0  0  0  0  0  0  0  0  0  0  0
    0.4821    0.7641    0.5465 H   0  0  0  0  0  0  0  0  0  0  0  0
    0.5285   -0.9969    0.6028 H   0  0  0  0  0  0  0  0  0  0  0  0
    0.5576   -0.1611   -0.9608 H   0  0  0  0  0  0  0  0  0  0  0  0
    2.7404   -0.1148    1.1896 H   0  0  0  0  0  0  0  0  0  0  0  0
    2.5186    1.9824    0.2950 H   0  0  0  0  0  0  0  0  0  0  0  0
    3.3513    3.4936   -2.5042 H   0  0  0  0  0  0  0  0  0  0  0  0
    4.7782    3.5008   -1.3830 H   0  0  0  0  0  0  0  0  0  0  0  0
    1.9061    3.9721   -0.5638 H   0  0  0  0  0  0  0  0  0  0  0  0
    3.1581    5.1878   -0.8376 H   0  0  0  0  0  0  0  0  0  0  0  0
    3.3570    4.0326    0.4785 H   0  0  0  0  0  0  0  0  0  0  0  0
    4.2675    1.7173   -4.4656 H   0  0  0  0  0  0  0  0  0  0  0  0
    5.7899    0.9128   -4.1101 H   0  0  0  0  0  0  0  0  0  0  0  0
    6.4981    2.8012   -2.6718 H   0  0  0  0  0  0  0  0  0  0  0  0
    5.1144    3.7009   -3.3372 H   0  0  0  0  0  0  0  0  0  0  0  0
    5.8903    3.4660   -5.6068 H   0  0  0  0  0  0  0  0  0  0  0  0
    7.3689    2.6778   -5.0282 H   0  0  0  0  0  0  0  0  0  0  0  0
    7.8283    4.6444   -3.5428 H   0  0  0  0  0  0  0  0  0  0  0  0
    6.3352    5.4132   -4.0675 H   0  0  0  0  0  0  0  0  0  0  0  0
    7.2054    5.5965   -6.3856 H   0  0  0  0  0  0  0  0  0  0  0  0
    8.7122    4.8131   -5.8869 H   0  0  0  0  0  0  0  0  0  0  0  0
    7.6055    7.4391   -4.7397 H   0  0  0  0  0  0  0  0  0  0  0  0
    8.9637    7.2883   -5.8692 H   0  0  0  0  0  0  0  0  0  0  0  0
    9.1053    6.6538   -4.2195 H   0  0  0  0  0  0  0  0  0  0  0  0
    4.8649   -0.7854   -4.6408 H   0  0  0  0  0  0  0  0  0  0  0  0
    4.3243   -2.2229   -3.8633 H   0  0  0  0  0  0  0  0  0  0  0  0
    6.7247   -2.4552   -4.3280 H   0  0  0  0  0  0  0  0  0  0  0  0
    4.1294   -2.5008   -1.6996 H   0  0  0  0  0  0  0  0  0  0  0  0
    2.7688   -2.2180    0.0588 H   0  0  0  0  0  0  0  0  0  0  0  0
  1  2  1  0  0  0  0
  1 20  1  0  0  0  0
  1 21  1  0  0  0  0
  1 22  1  0  0  0  0
  2  3  1  0  0  0  0
  2 19  1  0  0  0  0
  2 23  1  0  0  0  0
  3  4  2  0  0  0  0
  3 24  1  0  0  0  0
  4  5  1  0  0  0  0
  4  7  1  0  0  0  0
  5  6  1  0  0  0  0
  5 25  1  0  0  0  0
  5 26  1  0  0  0  0
  6 27  1  0  0  0  0
  6 28  1  0  0  0  0
  6 29  1  0  0  0  0
  7  8  1  0  0  0  0
  7 14  2  0  0  0  0
  8  9  1  0  0  0  0
  8 30  1  0  0  0  0
  8 31  1  0  0  0  0
  9 10  1  0  0  0  0
  9 32  1  0  0  0  0
  9 33  1  0  0  0  0
 10 11  1  0  0  0  0
 10 34  1  0  0  0  0
 10 35  1  0  0  0  0
 11 12  1  0  0  0  0
 11 36  1  0  0  0  0
 11 37  1  0  0  0  0
 12 13  1  0  0  0  0
 12 38  1  0  0  0  0
 12 39  1  0  0  0  0
 13 40  1  0  0  0  0
 13 41  1  0  0  0  0
 13 42  1  0  0  0  0
 14 15  1  0  0  0  0
 14 18  1  0  0  0  0
 15 16  1  0  0  0  0
 15 43  1  0  0  0  0
 15 44  1  0  0  0  0
 16 17  2  0  0  0  0
 16 45  1  0  0  0  0
 18 19  2  0  0  0  0
 18 46  1  0  0  0  0
 19 47  1  0  0  0  0
M  END
$$$$
