
 OpenBabel04232216453D

 48 49  0  0  1  0  0  0  0  0999 V2000
    5.2439    3.2645    2.5477 C   0  0  0  0  0  0  0  0  0  0  0  0
    5.0240    2.4049    1.2857 C   0  0  3  0  0  0  0  0  0  0  0  0
    3.6055    1.9790    1.2182 C   0  0  0  0  0  0  0  0  0  0  0  0
    3.0274    1.5698    0.0656 C   0  0  0  0  0  0  0  0  0  0  0  0
    1.7570    0.7394    0.2511 C   0  0  0  0  0  0  0  0  0  0  0  0
    3.6856    1.4967   -1.1792 N   0  0  0  0  0  0  0  0  0  0  0  0
    4.6902    2.5076   -1.6951 C   0  0  0  0  0  0  0  0  0  0  0  0
    4.7923    2.6087   -3.2331 C   0  0  0  0  0  0  0  0  0  0  0  0
    6.0208    3.2457   -3.7177 N   0  0  0  0  0  0  0  0  0  0  0  0
    7.2483    2.6376   -3.6476 C   0  0  0  0  0  0  0  0  0  0  0  0
    7.5020    1.5830   -3.0729 O   0  0  0  0  0  0  0  0  0  0  0  0
    4.0332    0.1703   -1.4912 C   0  0  0  0  0  0  0  0  0  0  0  0
    5.0673   -0.4588   -0.8644 C   0  0  0  0  0  0  0  0  0  0  0  0
    5.5374   -1.8088   -1.3898 C   0  0  0  0  0  0  0  0  0  0  0  0
    4.8300   -3.0701   -0.8713 C   0  0  0  0  0  0  0  0  0  0  0  0
    3.3684   -2.9290   -0.4667 C   0  0  0  0  0  0  0  0  0  0  0  0
    2.3666   -2.6923   -1.5922 C   0  0  0  0  0  0  0  0  0  0  0  0
    2.8002   -1.8473   -2.7768 C   0  0  0  0  0  0  0  0  0  0  0  0
    3.1028   -0.3776   -2.5768 C   0  0  0  0  0  0  0  0  0  0  0  0
    2.5506    0.4254   -3.3499 O   0  0  0  0  0  0  0  0  0  0  0  0
    5.9897    0.1693    0.1610 C   0  0  0  0  0  0  0  0  0  0  0  0
    6.0027    1.2496    0.9930 C   0  0  0  0  0  0  0  0  0  0  0  0
    6.1941    3.0623    3.0417 H   0  0  0  0  0  0  0  0  0  0  0  0
    4.4362    3.1787    3.2821 H   0  0  0  0  0  0  0  0  0  0  0  0
    5.2534    4.3241    2.2565 H   0  0  0  0  0  0  0  0  0  0  0  0
    5.2189    3.1542    0.5177 H   0  0  0  0  0  0  0  0  0  0  0  0
    3.0911    1.7878    2.1595 H   0  0  0  0  0  0  0  0  0  0  0  0
    1.1223    1.1244    1.0541 H   0  0  0  0  0  0  0  0  0  0  0  0
    2.0284   -0.2836    0.5229 H   0  0  0  0  0  0  0  0  0  0  0  0
    1.1603    0.6990   -0.6633 H   0  0  0  0  0  0  0  0  0  0  0  0
    5.6972    2.2590   -1.3460 H   0  0  0  0  0  0  0  0  0  0  0  0
    4.4546    3.5057   -1.3189 H   0  0  0  0  0  0  0  0  0  0  0  0
    3.9615    3.2193   -3.6009 H   0  0  0  0  0  0  0  0  0  0  0  0
    4.7485    1.6286   -3.7189 H   0  0  0  0  0  0  0  0  0  0  0  0
    5.9323    4.0121   -4.3750 H   0  0  0  0  0  0  0  0  0  0  0  0
    8.0264    3.2126   -4.1821 H   0  0  0  0  0  0  0  0  0  0  0  0
    6.6124   -1.9375   -1.2187 H   0  0  0  0  0  0  0  0  0  0  0  0
    5.4776   -1.7909   -2.4838 H   0  0  0  0  0  0  0  0  0  0  0  0
    5.3819   -3.4330    0.0042 H   0  0  0  0  0  0  0  0  0  0  0  0
    4.9241   -3.8596   -1.6293 H   0  0  0  0  0  0  0  0  0  0  0  0
    3.2672   -2.1518    0.2924 H   0  0  0  0  0  0  0  0  0  0  0  0
    3.0664   -3.8582    0.0390 H   0  0  0  0  0  0  0  0  0  0  0  0
    1.4446   -2.2844   -1.1595 H   0  0  0  0  0  0  0  0  0  0  0  0
    2.0867   -3.6749   -1.9972 H   0  0  0  0  0  0  0  0  0  0  0  0
    1.9364   -1.8602   -3.4588 H   0  0  0  0  0  0  0  0  0  0  0  0
    3.6090   -2.3126   -3.3526 H   0  0  0  0  0  0  0  0  0  0  0  0
    6.9544   -0.3492    0.1601 H   0  0  0  0  0  0  0  0  0  0  0  0
    6.9626    1.4357    1.4732 H   0  0  0  0  0  0  0  0  0  0  0  0
  1  2  1  0  0  0  0
  1 23  1  0  0  0  0
  1 24  1  0  0  0  0
  1 25  1  0  0  0  0
  2  3  1  0  0  0  0
  2 22  1  0  0  0  0
  2 26  1  0  0  0  0
  3  4  2  0  0  0  0
  3 27  1  0  0  0  0
  4  5  1  0  0  0  0
  4  6  1  0  0  0  0
  5 28  1  0  0  0  0
  5 29  1  0  0  0  0
  5 30  1  0  0  0  0
  6  7  1  0  0  0  0
  6 12  1  0  0  0  0
  7  8  1  0  0  0  0
  7 31  1  0  0  0  0
  7 32  1  0  0  0  0
  8  9  1  0  0  0  0
  8 33  1  0  0  0  0
  8 34  1  0  0  0  0
  9 10  1  0  0  0  0
  9 35  1  0  0  0  0
 10 11  2  0  0  0  0
 10 36  1  0  0  0  0
 12 13  2  0  0  0  0
 12 19  1  0  0  0  0
 13 14  1  0  0  0  0
 13 21  1  0  0  0  0
 14 15  1  0  0  0  0
 14 37  1  0  0  0  0
 14 38  1  0  0  0  0
 15 16  1  0  0  0  0
 15 39  1  0  0  0  0
 15 40  1  0  0  0  0
 16 17  1  0  0  0  0
 16 41  1  0  0  0  0
 16 42  1  0  0  0  0
 17 18  1  0  0  0  0
 17 43  1  0  0  0  0
 17 44  1  0  0  0  0
 18 19  1  0  0  0  0
 18 45  1  0  0  0  0
 18 46  1  0  0  0  0
 19 20  2  0  0  0  0
 21 22  2  0  0  0  0
 21 47  1  0  0  0  0
 22 48  1  0  0  0  0
M  END
$$$$
