
 OpenBabel04232216453D

 53 55  0  0  1  0  0  0  0  0999 V2000
    0.8113   -0.0774    0.2335 C   0  0  0  0  0  0  0  0  0  0  0  0
    2.3619   -0.1422    0.2064 C   0  0  3  0  0  0  0  0  0  0  0  0
    2.7622    1.1853   -0.3845 C   0  0  0  0  0  0  0  0  0  0  0  0
    3.4501    1.6061   -1.4633 C   0  0  0  0  0  0  0  0  0  0  0  0
    3.4253    3.1062   -1.7038 C   0  0  0  0  0  0  0  0  0  0  0  0
    4.2051    0.7539   -2.3864 C   0  0  0  0  0  0  0  0  0  0  0  0
    4.9915    1.4259   -3.5644 C   0  0  3  0  0  0  0  0  0  0  0  0
    6.4254    1.8521   -3.1455 C   0  0  0  0  0  0  0  0  0  0  0  0
    7.3634    0.7349   -2.7040 C   0  0  0  0  0  0  0  0  0  0  0  0
    4.9469    0.7264   -4.9478 C   0  0  0  0  0  0  0  0  0  0  0  0
    5.9240    0.6282   -5.9279 C   0  0  0  0  0  0  0  0  0  0  0  0
    5.4616   -0.0070   -7.1193 C   0  0  0  0  0  0  0  0  0  0  0  0
    4.1483   -0.3987   -7.0188 C   0  0  0  0  0  0  0  0  0  0  0  0
    3.4612    0.0525   -5.5244 S   0  0  0  0  0  0  0  0  0  0  0  0
    4.2697   -0.5861   -2.3110 C   0  0  0  0  0  0  0  0  0  0  0  0
    3.5967   -1.6069   -1.5324 C   0  0  0  0  0  0  0  0  0  0  0  0
    3.8490   -2.9744   -2.1634 C   0  0  0  0  0  0  0  0  0  0  0  0
    2.8356   -1.4538   -0.4206 C   0  0  0  0  0  0  0  0  0  0  0  0
    2.3076   -2.6929    0.3316 C   0  0  0  0  0  0  0  0  0  0  0  0
    3.1129   -3.1925    1.5174 C   0  0  0  0  0  0  0  0  0  0  0  0
    2.4305   -3.7501    2.6143 C   0  0  0  0  0  0  0  0  0  0  0  0
    3.1227   -4.4198    3.6297 C   0  0  0  0  0  0  0  0  0  0  0  0
    4.5100   -4.5376    3.5616 C   0  0  0  0  0  0  0  0  0  0  0  0
    5.2006   -3.9688    2.4970 C   0  0  0  0  0  0  0  0  0  0  0  0
    4.5100   -3.2945    1.4850 C   0  0  0  0  0  0  0  0  0  0  0  0
    0.4382    0.9124    0.5253 H   0  0  0  0  0  0  0  0  0  0  0  0
    0.3794   -0.7676    0.9632 H   0  0  0  0  0  0  0  0  0  0  0  0
    0.3888   -0.3080   -0.7523 H   0  0  0  0  0  0  0  0  0  0  0  0
    2.7185   -0.1319    1.2459 H   0  0  0  0  0  0  0  0  0  0  0  0
    2.3425    1.9870    0.2286 H   0  0  0  0  0  0  0  0  0  0  0  0
    2.6997    3.6228   -1.0631 H   0  0  0  0  0  0  0  0  0  0  0  0
    3.1103    3.3482   -2.7238 H   0  0  0  0  0  0  0  0  0  0  0  0
    4.4032    3.5523   -1.5012 H   0  0  0  0  0  0  0  0  0  0  0  0
    4.4878    2.3663   -3.8153 H   0  0  0  0  0  0  0  0  0  0  0  0
    6.3567    2.5720   -2.3202 H   0  0  0  0  0  0  0  0  0  0  0  0
    6.9032    2.4004   -3.9668 H   0  0  0  0  0  0  0  0  0  0  0  0
    6.9738    0.1934   -1.8381 H   0  0  0  0  0  0  0  0  0  0  0  0
    8.3282    1.1621   -2.4084 H   0  0  0  0  0  0  0  0  0  0  0  0
    7.5521    0.0191   -3.5088 H   0  0  0  0  0  0  0  0  0  0  0  0
    6.9281    1.0163   -5.8204 H   0  0  0  0  0  0  0  0  0  0  0  0
    6.0612   -0.1595   -8.0084 H   0  0  0  0  0  0  0  0  0  0  0  0
    3.5482   -0.9034   -7.7629 H   0  0  0  0  0  0  0  0  0  0  0  0
    4.9773   -1.0343   -3.0135 H   0  0  0  0  0  0  0  0  0  0  0  0
    4.0581   -2.8989   -3.2384 H   0  0  0  0  0  0  0  0  0  0  0  0
    2.9774   -3.6303   -2.1189 H   0  0  0  0  0  0  0  0  0  0  0  0
    4.7052   -3.4656   -1.6921 H   0  0  0  0  0  0  0  0  0  0  0  0
    2.1924   -3.5545   -0.3313 H   0  0  0  0  0  0  0  0  0  0  0  0
    1.2802   -2.5212    0.6581 H   0  0  0  0  0  0  0  0  0  0  0  0
    1.3461   -3.7049    2.6681 H   0  0  0  0  0  0  0  0  0  0  0  0
    2.5761   -4.8690    4.4543 H   0  0  0  0  0  0  0  0  0  0  0  0
    5.0434   -5.0941    4.3290 H   0  0  0  0  0  0  0  0  0  0  0  0
    6.2814   -4.0662    2.4402 H   0  0  0  0  0  0  0  0  0  0  0  0
    5.0775   -2.8877    0.6501 H   0  0  0  0  0  0  0  0  0  0  0  0
  1  2  1  0  0  0  0
  1 26  1  0  0  0  0
  1 27  1  0  0  0  0
  1 28  1  0  0  0  0
  2  3  1  0  0  0  0
  2 18  1  0  0  0  0
  2 29  1  0  0  0  0
  3  4  2  0  0  0  0
  3 30  1  0  0  0  0
  4  5  1  0  0  0  0
  4  6  1  0  0  0  0
  5 31  1  0  0  0  0
  5 32  1  0  0  0  0
  5 33  1  0  0  0  0
  6  7  1  0  0  0  0
  6 15  2  0  0  0  0
  7  8  1  0  0  0  0
  7 10  1  0  0  0  0
  7 34  1  0  0  0  0
  8  9  1  0  0  0  0
  8 35  1  0  0  0  0
  8 36  1  0  0  0  0
  9 37  1  0  0  0  0
  9 38  1  0  0  0  0
  9 39  1  0  0  0  0
 10 11  2  0  0  0  0
 10 14  1  0  0  0  0
 11 12  1  0  0  0  0
 11 40  1  0  0  0  0
 12 13  2  0  0  0  0
 12 41  1  0  0  0  0
 13 14  1  0  0  0  0
 13 42  1  0  0  0  0
 15 16  1  0  0  0  0
 15 43  1  0  0  0  0
 16 17  1  0  0  0  0
 16 18  2  0  0  0  0
 17 44  1  0  0  0  0
 17 45  1  0  0  0  0
 17 46  1  0  0  0  0
 18 19  1  0  0  0  0
 19 20  1  0  0  0  0
 19 47  1  0  0  0  0
 19 48  1  0  0  0  0
 20 21  1  0  0  0  0
 20 25  2  0  0  0  0
 21 22  2  0  0  0  0
 21 49  1  0  0  0  0
 22 23  1  0  0  0  0
 22 50  1  0  0  0  0
 23 24  2  0  0  0  0
 23 51  1  0  0  0  0
 24 25  1  0  0  0  0
 24 52  1  0  0  0  0
 25 53  1  0  0  0  0
M  END
$$$$
