
 OpenBabel04232216443D

 65 68  0  0  0  0  0  0  0  0999 V2000
    7.7566    2.6827    5.4797 C   0  0  0  0  0  0  0  0  0  0  0  0
    7.9649    1.7681    4.2397 C   0  0  0  0  0  0  0  0  0  0  0  0
    6.4115    2.0772    3.5043 C   0  0  0  0  0  0  0  0  0  0  0  0
    4.9013    1.7321    3.6490 C   0  0  0  0  0  0  0  0  0  0  0  0
    3.0451    1.6393    3.3431 C   0  0  0  0  0  0  0  0  0  0  0  0
    1.4441    0.9093    2.6449 C   0  0  0  0  0  0  0  0  0  0  0  0
    0.7169    0.4171    1.1227 C   0  0  0  0  0  0  0  0  0  0  0  0
    1.5544   -0.1133   -0.0410 C   0  0  0  0  0  0  0  0  0  0  0  0
    2.7851    0.4863    0.3972 C   0  0  0  0  0  0  0  0  0  0  0  0
    4.0183    0.0130   -0.2177 C   0  0  0  0  0  0  0  0  0  0  0  0
    4.7876    0.4173    0.9613 C   0  0  0  0  0  0  0  0  0  0  0  0
    6.0953   -0.0318    0.7898 C   0  0  0  0  0  0  0  0  0  0  0  0
    6.9210    0.9020    1.2001 C   0  0  0  0  0  0  0  0  0  0  0  0
    8.1662    0.3467    1.6891 C   0  0  0  0  0  0  0  0  0  0  0  0
    8.6877   -0.7874    1.2312 C   0  0  0  0  0  0  0  0  0  0  0  0
    9.4113   -0.5299    0.0090 C   0  0  0  0  0  0  0  0  0  0  0  0
    9.1512    0.4398   -0.9036 C   0  0  0  0  0  0  0  0  0  0  0  0
    8.4959    1.7996   -0.9248 C   0  0  0  0  0  0  0  0  0  0  0  0
    7.6645    2.6472   -0.2199 C   0  0  0  0  0  0  0  0  0  0  0  0
    6.7474    2.4875    1.0496 C   0  0  0  0  0  0  0  0  0  0  0  0
    5.5469    3.6535    0.9717 C   0  0  0  0  0  0  0  0  0  0  0  0
    6.9257    2.9815    2.4465 C   0  0  0  0  0  0  0  0  0  0  0  0
    7.4201    4.2141    2.9092 N   0  0  0  0  0  0  0  0  0  0  0  0
    8.0086    4.8968    2.0926 N   0  0  0  0  0  0  0  0  0  0  0  0
    9.3186    4.9889    2.4747 N   0  0  0  0  0  0  0  0  0  0  0  0
    9.9268    4.0115    1.8982 C   0  0  0  0  0  0  0  0  0  0  0  0
   10.0531    2.5733    2.5037 C   0  0  0  0  0  0  0  0  0  0  0  0
   11.1052    2.0939    1.7010 C   0  0  0  0  0  0  0  0  0  0  0  0
   11.7386    0.8658    2.0076 C   0  0  0  0  0  0  0  0  0  0  0  0
   11.4669    0.2579    3.1691 C   0  0  0  0  0  0  0  0  0  0  0  0
   10.4229    0.8025    4.1181 C   0  0  0  0  0  3  0  0  0  0  0  0
    9.3589    1.8858    3.7043 C   0  0  0  0  0  0  0  0  0  0  0  0
    6.7265    3.0720    5.5502 H   0  0  0  0  0  0  0  0  0  0  0  0
    8.3714    3.5861    5.3748 H   0  0  0  0  0  0  0  0  0  0  0  0
    7.9657    2.1975    6.4305 H   0  0  0  0  0  0  0  0  0  0  0  0
    4.6491    2.6319    3.1243 H   0  0  0  0  0  0  0  0  0  0  0  0
    2.7321    1.4688    4.3945 H   0  0  0  0  0  0  0  0  0  0  0  0
    2.7663    2.6996    3.1813 H   0  0  0  0  0  0  0  0  0  0  0  0
    0.7237    1.7201    2.8657 H   0  0  0  0  0  0  0  0  0  0  0  0
    1.1362    0.1030    3.3256 H   0  0  0  0  0  0  0  0  0  0  0  0
   -0.0221   -0.3748    1.3216 H   0  0  0  0  0  0  0  0  0  0  0  0
    0.1374    1.2565    0.7103 H   0  0  0  0  0  0  0  0  0  0  0  0
    1.3162    0.2403   -1.0475 H   0  0  0  0  0  0  0  0  0  0  0  0
    1.6612   -1.2060   -0.0576 H   0  0  0  0  0  0  0  0  0  0  0  0
    2.8310    0.0534    1.3962 H   0  0  0  0  0  0  0  0  0  0  0  0
    2.7252    1.5832    0.4602 H   0  0  0  0  0  0  0  0  0  0  0  0
    4.2925    0.5478   -1.1277 H   0  0  0  0  0  0  0  0  0  0  0  0
    4.0643   -1.0709   -0.3542 H   0  0  0  0  0  0  0  0  0  0  0  0
    4.5200   -0.0681    1.9160 H   0  0  0  0  0  0  0  0  0  0  0  0
    4.6729    1.4904    1.1165 H   0  0  0  0  0  0  0  0  0  0  0  0
    6.2494   -1.0997    0.7461 H   0  0  0  0  0  0  0  0  0  0  0  0
    8.8556    1.1440    1.5466 H   0  0  0  0  0  0  0  0  0  0  0  0
    8.1345   -1.7268    1.2794 H   0  0  0  0  0  0  0  0  0  0  0  0
   10.2608   -1.1966   -0.1125 H   0  0  0  0  0  0  0  0  0  0  0  0
    9.5787    0.1886   -1.8751 H   0  0  0  0  0  0  0  0  0  0  0  0
    8.8775    2.2677   -1.8405 H   0  0  0  0  0  0  0  0  0  0  0  0
    7.4057    3.5453   -0.7804 H   0  0  0  0  0  0  0  0  0  0  0  0
    4.6512    3.4510    0.4055 H   0  0  0  0  0  0  0  0  0  0  0  0
    5.9785    4.6279    0.6650 H   0  0  0  0  0  0  0  0  0  0  0  0
    5.1289    4.0044    1.9560 H   0  0  0  0  0  0  0  0  0  0  0  0
   10.3081    4.1741    0.8531 H   0  0  0  0  0  0  0  0  0  0  0  0
   11.5234    2.5734    0.8515 H   0  0  0  0  0  0  0  0  0  0  0  0
   12.5152    0.4815    1.3413 H   0  0  0  0  0  0  0  0  0  0  0  0
   12.0892   -0.5881    3.4464 H   0  0  0  0  0  0  0  0  0  0  0  0
   10.9271    1.0243    5.0610 H   0  0  0  0  0  0  0  0  0  0  0  0
  1  2  1  0  0  0  0
  1 33  1  0  0  0  0
  1 34  1  0  0  0  0
  1 35  1  0  0  0  0
  2  3  1  0  0  0  0
  2 32  2  3  0  0  0
  3  4  2  3  0  0  0
  3 22  1  0  0  0  0
  4  5  1  0  0  0  0
  4 36  1  0  0  0  0
  5  6  1  0  0  0  0
  5 37  1  0  0  0  0
  5 38  1  0  0  0  0
  6  7  1  0  0  0  0
  6 39  1  0  0  0  0
  6 40  1  0  0  0  0
  7  8  1  0  0  0  0
  7 41  1  0  0  0  0
  7 42  1  0  0  0  0
  8  9  1  0  0  0  0
  8 43  1  0  0  0  0
  8 44  1  0  0  0  0
  9 10  1  0  0  0  0
  9 45  1  0  0  0  0
  9 46  1  0  0  0  0
 10 11  1  0  0  0  0
 10 47  1  0  0  0  0
 10 48  1  0  0  0  0
 11 12  1  0  0  0  0
 11 49  1  0  0  0  0
 11 50  1  0  0  0  0
 12 13  2  3  0  0  0
 12 51  1  0  0  0  0
 13 14  1  0  0  0  0
 13 20  1  0  0  0  0
 14 15  2  0  0  0  0
 14 52  1  0  0  0  0
 15 16  1  0  0  0  0
 15 53  1  0  0  0  0
 16 17  2  0  0  0  0
 16 54  1  0  0  0  0
 17 18  1  0  0  0  0
 17 55  1  0  0  0  0
 18 19  2  0  0  0  0
 18 56  1  0  0  0  0
 19 20  1  0  0  0  0
 19 57  1  0  0  0  0
 20 21  1  0  0  0  0
 20 22  2  0  0  0  0
 21 58  1  0  0  0  0
 21 59  1  0  0  0  0
 21 60  1  0  0  0  0
 22 23  1  0  0  0  0
 23 24  2  3  0  0  0
 24 25  1  0  0  0  0
 25 26  2  3  0  0  0
 26 27  1  0  0  0  0
 26 61  1  0  0  0  0
 27 28  2  0  0  0  0
 27 32  1  0  0  0  0
 28 29  1  0  0  0  0
 28 62  1  0  0  0  0
 29 30  2  0  0  0  0
 29 63  1  0  0  0  0
 30 31  1  0  0  0  0
 30 64  1  0  0  0  0
 31 32  1  0  0  0  0
 31 65  1  0  0  0  0
M  END
$$$$
