
 OpenBabel04232216473D

 47 48  0  0  0  0  0  0  0  0999 V2000
    5.8278   -1.0695    2.5547 C   0  0  0  0  0  0  0  0  0  0  0  0
    6.3642   -1.9141    1.4427 C   0  0  0  0  0  0  0  0  0  0  0  0
    5.3044   -2.2318    0.4357 C   0  0  0  0  0  3  0  0  0  0  0  0
    5.2172   -1.7461   -0.9381 C   0  0  0  0  0  0  0  0  0  0  0  0
    4.8498   -3.0065   -1.6442 N   0  0  0  0  0  0  0  0  0  0  0  0
    3.4829   -3.4265   -1.6109 C   0  0  0  0  0  0  0  0  0  0  0  0
    3.2145   -4.6084   -2.5240 C   0  0  0  0  0  0  0  0  0  0  0  0
    5.1997   -0.2422   -1.0822 C   0  0  0  0  0  0  0  0  0  0  0  0
    4.0068    0.2705   -0.6838 F   0  0  0  0  0  0  0  0  0  0  0  0
    5.6296   -2.2069   -2.3503 C   0  0  0  0  0  0  0  0  0  0  0  0
    7.0407   -2.0748   -2.5527 C   0  0  0  0  0  0  0  0  0  0  0  0
    8.0207   -2.8552   -2.0583 C   0  0  0  0  0  0  0  0  0  0  0  0
    7.7456   -4.2169   -1.4450 C   0  0  0  0  0  0  0  0  0  0  0  0
    9.3711   -2.2789   -1.8015 C   0  0  0  0  0  0  0  0  0  0  0  0
    9.4145   -0.8937   -1.1079 C   0  0  0  0  0  0  0  0  0  0  0  0
   10.1938    0.1991   -1.8405 C   0  0  0  0  0  0  0  0  0  0  0  0
   10.3886   -3.1651   -1.6455 C   0  0  0  0  0  0  0  0  0  0  0  0
   11.1521   -3.1019   -0.3828 C   0  0  0  0  0  0  0  0  0  0  0  0
   10.4484   -3.5301    0.6891 C   0  0  0  0  0  0  0  0  0  0  0  0
    9.8897   -2.7295    1.7798 C   0  0  0  0  0  0  0  0  0  0  0  0
    8.6364   -2.2487    1.9813 C   0  0  0  0  0  0  0  0  0  0  0  0
    7.5335   -2.4017    1.1861 N   0  0  0  0  0  0  0  0  0  0  0  0
    5.0086   -1.6065    3.0423 H   0  0  0  0  0  0  0  0  0  0  0  0
    5.4062   -0.1539    2.1250 H   0  0  0  0  0  0  0  0  0  0  0  0
    6.5844   -0.8052    3.2872 H   0  0  0  0  0  0  0  0  0  0  0  0
    4.3559   -2.5016    0.8927 H   0  0  0  0  0  0  0  0  0  0  0  0
    2.7732   -2.6112   -1.7678 H   0  0  0  0  0  0  0  0  0  0  0  0
    3.2962   -3.8158   -0.5982 H   0  0  0  0  0  0  0  0  0  0  0  0
    3.2856   -4.3230   -3.5740 H   0  0  0  0  0  0  0  0  0  0  0  0
    2.2061   -5.0005   -2.3356 H   0  0  0  0  0  0  0  0  0  0  0  0
    3.9193   -5.4297   -2.3398 H   0  0  0  0  0  0  0  0  0  0  0  0
    5.4413    0.1633   -2.0734 H   0  0  0  0  0  0  0  0  0  0  0  0
    5.9727    0.1749   -0.4170 H   0  0  0  0  0  0  0  0  0  0  0  0
    7.3164   -1.1202   -2.9970 H   0  0  0  0  0  0  0  0  0  0  0  0
    6.7021   -4.4199   -1.2181 H   0  0  0  0  0  0  0  0  0  0  0  0
    8.2624   -4.3613   -0.4931 H   0  0  0  0  0  0  0  0  0  0  0  0
    8.0792   -5.0015   -2.1292 H   0  0  0  0  0  0  0  0  0  0  0  0
    9.9038   -0.9596   -0.1347 H   0  0  0  0  0  0  0  0  0  0  0  0
    8.4182   -0.5194   -0.8585 H   0  0  0  0  0  0  0  0  0  0  0  0
   11.1316   -0.1680   -2.2662 H   0  0  0  0  0  0  0  0  0  0  0  0
   10.4626    0.9921   -1.1212 H   0  0  0  0  0  0  0  0  0  0  0  0
    9.5957    0.6636   -2.6239 H   0  0  0  0  0  0  0  0  0  0  0  0
   10.3376   -4.1469   -2.1157 H   0  0  0  0  0  0  0  0  0  0  0  0
   11.6501   -2.1299   -0.3515 H   0  0  0  0  0  0  0  0  0  0  0  0
   10.4830   -4.6046    0.8909 H   0  0  0  0  0  0  0  0  0  0  0  0
   10.6269   -2.5261    2.5524 H   0  0  0  0  0  0  0  0  0  0  0  0
    8.4917   -1.6868    2.9028 H   0  0  0  0  0  0  0  0  0  0  0  0
  1  2  1  0  0  0  0
  1 23  1  0  0  0  0
  1 24  1  0  0  0  0
  1 25  1  0  0  0  0
  2  3  1  0  0  0  0
  2 22  2  3  0  0  0
  3  4  1  0  0  0  0
  3 26  1  0  0  0  0
  4  5  1  0  0  0  0
  4  8  1  0  0  0  0
  4 10  2  0  0  0  0
  5  6  1  0  0  0  0
  5 10  1  0  0  0  0
  6  7  1  0  0  0  0
  6 27  1  0  0  0  0
  6 28  1  0  0  0  0
  7 29  1  0  0  0  0
  7 30  1  0  0  0  0
  7 31  1  0  0  0  0
  8  9  1  0  0  0  0
  8 32  1  0  0  0  0
  8 33  1  0  0  0  0
 10 11  1  0  0  0  0
 11 12  2  3  0  0  0
 11 34  1  0  0  0  0
 12 13  1  0  0  0  0
 12 14  1  0  0  0  0
 13 35  1  0  0  0  0
 13 36  1  0  0  0  0
 13 37  1  0  0  0  0
 14 15  1  0  0  0  0
 14 17  2  3  0  0  0
 15 16  1  0  0  0  0
 15 38  1  0  0  0  0
 15 39  1  0  0  0  0
 16 40  1  0  0  0  0
 16 41  1  0  0  0  0
 16 42  1  0  0  0  0
 17 18  1  0  0  0  0
 17 43  1  0  0  0  0
 18 19  2  3  0  0  0
 18 44  1  0  0  0  0
 19 20  1  0  0  0  0
 19 45  1  0  0  0  0
 20 21  2  3  0  0  0
 20 46  1  0  0  0  0
 21 22  1  0  0  0  0
 21 47  1  0  0  0  0
M  END
$$$$
