
 OpenBabel04232216513D

 31 31  0  0  1  0  0  0  0  0999 V2000
    5.0572   -1.5871   -0.5611 C   0  0  0  0  0  0  0  0  0  0  0  0
    6.4225   -0.9223   -0.5736 C   0  0  0  0  0  0  0  0  0  0  0  0
    6.4112    0.3517    0.2577 C   0  0  0  0  0  0  0  0  0  0  0  0
    5.4771    1.4221   -0.2248 C   0  0  3  0  0  0  0  0  0  0  0  0
    5.3342    2.6533    0.5428 C   0  0  0  0  0  0  0  0  0  0  0  0
    6.2628    2.9310    1.6878 C   0  0  0  0  0  0  0  0  0  0  0  0
    6.5419    4.4223    1.8922 C   0  0  0  0  0  0  0  0  0  0  0  0
    7.5402    4.6128    3.0391 C   0  0  0  0  0  0  0  0  0  0  0  0
    7.8565    6.0837    3.3063 C   0  0  0  0  0  0  0  0  0  0  0  0
    8.8397    6.2181    4.4624 C   0  0  0  0  0  0  0  0  0  0  0  0
    4.2981    1.8070    0.5431 C   0  0  0  0  0  0  0  0  0  0  0  0
    5.0835   -2.5356   -1.1062 H   0  0  0  0  0  0  0  0  0  0  0  0
    4.3100   -0.9423   -1.0320 H   0  0  0  0  0  0  0  0  0  0  0  0
    4.7408   -1.7864    0.4674 H   0  0  0  0  0  0  0  0  0  0  0  0
    6.7352   -0.7131   -1.6031 H   0  0  0  0  0  0  0  0  0  0  0  0
    7.1619   -1.6103   -0.1470 H   0  0  0  0  0  0  0  0  0  0  0  0
    7.4342    0.7518    0.2384 H   0  0  0  0  0  0  0  0  0  0  0  0
    6.1866    0.0842    1.2999 H   0  0  0  0  0  0  0  0  0  0  0  0
    5.4225    1.5302   -1.3001 H   0  0  0  0  0  0  0  0  0  0  0  0
    7.2306    2.4450    1.5202 H   0  0  0  0  0  0  0  0  0  0  0  0
    5.8514    2.5041    2.6111 H   0  0  0  0  0  0  0  0  0  0  0  0
    5.6062    4.9444    2.1151 H   0  0  0  0  0  0  0  0  0  0  0  0
    6.9514    4.8537    0.9700 H   0  0  0  0  0  0  0  0  0  0  0  0
    8.4703    4.0792    2.8090 H   0  0  0  0  0  0  0  0  0  0  0  0
    7.1319    4.1595    3.9511 H   0  0  0  0  0  0  0  0  0  0  0  0
    6.9353    6.6279    3.5482 H   0  0  0  0  0  0  0  0  0  0  0  0
    8.2841    6.5473    2.4108 H   0  0  0  0  0  0  0  0  0  0  0  0
    8.4419    5.7582    5.3728 H   0  0  0  0  0  0  0  0  0  0  0  0
    9.0434    7.2730    4.6740 H   0  0  0  0  0  0  0  0  0  0  0  0
    9.7902    5.7315    4.2230 H   0  0  0  0  0  0  0  0  0  0  0  0
    3.3685    1.9688    0.0208 H   0  0  0  0  0  0  0  0  0  0  0  0
  1  2  1  0  0  0  0
  1 12  1  0  0  0  0
  1 13  1  0  0  0  0
  1 14  1  0  0  0  0
  2  3  1  0  0  0  0
  2 15  1  0  0  0  0
  2 16  1  0  0  0  0
  3  4  1  0  0  0  0
  3 17  1  0  0  0  0
  3 18  1  0  0  0  0
  4  5  1  0  0  0  0
  4 11  1  0  0  0  0
  4 19  1  0  0  0  0
  5  6  1  0  0  0  0
  5 11  2  0  0  0  0
  6  7  1  0  0  0  0
  6 20  1  0  0  0  0
  6 21  1  0  0  0  0
  7  8  1  0  0  0  0
  7 22  1  0  0  0  0
  7 23  1  0  0  0  0
  8  9  1  0  0  0  0
  8 24  1  0  0  0  0
  8 25  1  0  0  0  0
  9 10  1  0  0  0  0
  9 26  1  0  0  0  0
  9 27  1  0  0  0  0
 10 28  1  0  0  0  0
 10 29  1  0  0  0  0
 10 30  1  0  0  0  0
 11 31  1  0  0  0  0
M  END
$$$$
