
 OpenBabel04232217003D

135134  0  0  0  0  0  0  0  0999 V2000
    0.9811    0.0126    0.1485 O   0  0  0  0  0  0  0  0  0  0  0  0
    2.4084   -0.0178    0.1511 C   0  0  0  0  0  0  0  0  0  0  0  0
    2.9134    1.4009    0.0380 C   0  0  0  0  0  0  0  0  0  0  0  0
    4.4362    1.4167    0.0387 C   0  0  0  0  0  0  0  0  0  0  0  0
    4.9458    2.8467   -0.0752 C   0  0  0  0  0  0  0  0  0  0  0  0
    6.4684    2.8503   -0.0735 C   0  0  0  0  0  0  0  0  0  0  0  0
    6.9771    4.2812   -0.1855 C   0  0  0  0  0  0  0  0  0  0  0  0
    8.4976    4.2827   -0.1855 C   0  0  0  0  0  0  0  0  0  0  0  0
    9.0075    5.7092   -0.2973 C   0  0  0  0  0  0  0  0  0  0  0  0
   10.5237    5.7145   -0.2997 C   0  0  0  0  0  0  0  0  0  0  0  0
   11.0360    7.1357   -0.4129 C   0  0  0  0  0  0  0  0  0  0  0  0
   12.5511    7.1430   -0.4136 C   0  0  0  0  0  0  0  0  0  0  0  0
   13.0626    8.5656   -0.5250 C   0  0  0  0  0  0  0  0  0  0  0  0
   14.5785    8.5712   -0.5273 C   0  0  0  0  0  0  0  0  0  0  0  0
   15.0891    9.9942   -0.6388 C   0  0  0  0  0  0  0  0  0  0  0  0
   16.6050   10.0002   -0.6393 C   0  0  0  0  0  0  0  0  0  0  0  0
   17.1173   11.4223   -0.7526 C   0  0  0  0  0  0  0  0  0  0  0  0
   18.6325   11.4310   -0.7553 C   0  0  0  0  0  0  0  0  0  0  0  0
   19.1455   12.8499   -0.8664 C   0  0  0  0  0  0  0  0  0  0  0  0
   20.6675   12.8562   -0.8669 C   0  0  0  0  0  0  0  0  0  0  0  0
   21.1705   14.2840   -0.9767 C   0  0  0  0  0  0  0  0  0  0  0  0
   22.6950   14.2924   -0.9793 C   0  0  0  0  0  0  0  0  0  0  0  0
   23.2128   15.7181   -1.0869 C   0  0  0  0  0  0  0  0  0  0  0  0
   24.7316   15.7382   -1.0883 C   0  0  0  0  0  0  0  0  0  0  0  0
   25.2631   17.1604   -1.1945 C   0  0  0  0  0  0  0  0  0  0  0  0
   26.7803   17.2023   -1.1966 C   0  0  0  0  0  0  0  0  0  0  0  0
   27.3321   18.5844   -1.3214 C   0  0  0  0  0  0  0  0  0  0  0  0
   29.1546   18.6405   -1.3435 S   0  0  0  0  0  0  0  0  0  0  0  0
   29.7152   17.5566   -2.9969 S   0  0  0  0  0  0  0  0  0  0  0  0
   28.9345   18.5205   -4.6408 S   0  0  0  0  0  0  0  0  0  0  0  0
   29.7932   20.3954   -4.7662 S   0  0  0  0  0  0  0  0  0  0  0  0
   28.9618   21.3539   -6.4257 S   0  0  0  0  0  0  0  0  0  0  0  0
   29.7765   23.2847   -6.5209 S   0  0  0  0  0  0  0  0  0  0  0  0
   28.9806   24.2621   -8.2045 S   0  0  0  0  0  0  0  0  0  0  0  0
   29.7985   26.2011   -8.2995 S   0  0  0  0  0  0  0  0  0  0  0  0
   29.0043   27.1864   -9.9847 S   0  0  0  0  0  0  0  0  0  0  0  0
   29.8227   29.1273  -10.0805 S   0  0  0  0  0  0  0  0  0  0  0  0
   29.0286   30.1142  -11.7667 S   0  0  0  0  0  0  0  0  0  0  0  0
   29.8467   32.0559  -11.8632 S   0  0  0  0  0  0  0  0  0  0  0  0
   29.0526   33.0431  -13.5496 S   0  0  0  0  0  0  0  0  0  0  0  0
   29.8707   34.9849  -13.6462 S   0  0  0  0  0  0  0  0  0  0  0  0
   29.0765   35.9722  -15.3327 S   0  0  0  0  0  0  0  0  0  0  0  0
   29.8947   37.9141  -15.4293 S   0  0  0  0  0  0  0  0  0  0  0  0
   29.1005   38.9013  -17.1158 S   0  0  0  0  0  0  0  0  0  0  0  0
   29.9187   40.8432  -17.2125 S   0  0  0  0  0  0  0  0  0  0  0  0
   29.1245   41.8305  -18.8989 S   0  0  0  0  0  0  0  0  0  0  0  0
   29.9427   43.7724  -18.9956 S   0  0  0  0  0  0  0  0  0  0  0  0
   29.1485   44.7596  -20.6820 S   0  0  0  0  0  0  0  0  0  0  0  0
   29.9667   46.7015  -20.7787 S   0  0  0  0  0  0  0  0  0  0  0  0
   29.1725   47.6888  -22.4651 S   0  0  0  0  0  0  0  0  0  0  0  0
   29.9907   49.6306  -22.5618 S   0  0  0  0  0  0  0  0  0  0  0  0
   29.1965   50.6179  -24.2483 S   0  0  0  0  0  0  0  0  0  0  0  0
   30.0147   52.5598  -24.3449 S   0  0  0  0  0  0  0  0  0  0  0  0
   29.2205   53.5471  -26.0314 S   0  0  0  0  0  0  0  0  0  0  0  0
   30.0387   55.4889  -26.1280 S   0  0  0  0  0  0  0  0  0  0  0  0
   29.2445   56.4762  -27.8145 S   0  0  0  0  0  0  0  0  0  0  0  0
   30.0627   58.4181  -27.9111 S   0  0  0  0  0  0  0  0  0  0  0  0
   29.2685   59.4054  -29.5976 S   0  0  0  0  0  0  0  0  0  0  0  0
   30.0867   61.3472  -29.6942 S   0  0  0  0  0  0  0  0  0  0  0  0
   29.2925   62.3345  -31.3807 S   0  0  0  0  0  0  0  0  0  0  0  0
   30.1107   64.2764  -31.4773 S   0  0  0  0  0  0  0  0  0  0  0  0
   29.3165   65.2637  -33.1638 S   0  0  0  0  0  0  0  0  0  0  0  0
   30.1347   67.2055  -33.2605 S   0  0  0  0  0  0  0  0  0  0  0  0
   29.3405   68.1928  -34.9469 S   0  0  0  0  0  0  0  0  0  0  0  0
   30.1586   70.1347  -35.0436 S   0  0  0  0  0  0  0  0  0  0  0  0
   29.3645   71.1220  -36.7300 S   0  0  0  0  0  0  0  0  0  0  0  0
   30.1826   73.0638  -36.8267 S   0  0  0  0  0  0  0  0  0  0  0  0
   29.3885   74.0511  -38.5131 S   0  0  0  0  0  0  0  0  0  0  0  0
   30.2066   75.9929  -38.6098 S   0  0  0  0  0  0  0  0  0  0  0  0
   29.4125   76.9801  -40.2962 S   0  0  0  0  0  0  0  0  0  0  0  0
   30.2306   78.9218  -40.3927 S   0  0  0  0  0  0  0  0  0  0  0  0
   29.4365   79.9085  -42.0788 S   0  0  0  0  0  0  0  0  0  0  0  0
   30.2547   81.8491  -42.1746 S   0  0  0  0  0  0  0  0  0  0  0  0
   29.4603   82.8336  -43.8596 S   0  0  0  0  0  0  0  0  0  0  0  0
   30.2786   84.7707  -43.9534 S   0  0  0  0  0  0  0  0  0  0  0  0
   29.4827   85.7475  -45.6345 S   0  0  0  0  0  0  0  0  0  0  0  0
   30.3016   87.6741  -45.7216 S   0  0  0  0  0  0  0  0  0  0  0  0
   29.5257   88.6154  -47.4120 S   0  0  0  0  0  0  0  0  0  0  0  0
   30.2675   90.5533  -47.4476 S   0  0  0  0  0  0  0  0  0  0  0  0
   29.5191   91.4567  -49.1533 S   0  0  0  0  0  0  0  0  0  0  0  0
   27.4927   91.6156  -48.8552 S   0  0  0  0  0  0  0  0  0  0  0  0
    0.6765   -0.8905    0.2206 H   0  0  0  0  0  0  0  0  0  0  0  0
    2.7369   -0.6269   -0.6970 H   0  0  0  0  0  0  0  0  0  0  0  0
    2.7367   -0.4849    1.0851 H   0  0  0  0  0  0  0  0  0  0  0  0
    2.5265    2.0058    0.8666 H   0  0  0  0  0  0  0  0  0  0  0  0
    2.5288    1.8659   -0.8775 H   0  0  0  0  0  0  0  0  0  0  0  0
    4.8131    0.8226   -0.7983 H   0  0  0  0  0  0  0  0  0  0  0  0
    4.8107    0.9636    0.9608 H   0  0  0  0  0  0  0  0  0  0  0  0
    4.5720    3.4470    0.7615 H   0  0  0  0  0  0  0  0  0  0  0  0
    4.5744    3.3059   -0.9979 H   0  0  0  0  0  0  0  0  0  0  0  0
    6.8444    2.2553   -0.9113 H   0  0  0  0  0  0  0  0  0  0  0  0
    6.8422    2.3941    0.8482 H   0  0  0  0  0  0  0  0  0  0  0  0
    6.6043    4.8770    0.6527 H   0  0  0  0  0  0  0  0  0  0  0  0
    6.6044    4.7392   -1.1063 H   0  0  0  0  0  0  0  0  0  0  0  0
    8.8726    3.6858   -1.0249 H   0  0  0  0  0  0  0  0  0  0  0  0
    8.8729    3.8238    0.7363 H   0  0  0  0  0  0  0  0  0  0  0  0
    8.6326    6.3076    0.5423 H   0  0  0  0  0  0  0  0  0  0  0  0
    8.6304    6.1705   -1.2184 H   0  0  0  0  0  0  0  0  0  0  0  0
   10.8996    5.1133   -1.1387 H   0  0  0  0  0  0  0  0  0  0  0  0
   10.9017    5.2527    0.6225 H   0  0  0  0  0  0  0  0  0  0  0  0
   10.6588    7.7378    0.4254 H   0  0  0  0  0  0  0  0  0  0  0  0
   10.6588    7.5974   -1.3361 H   0  0  0  0  0  0  0  0  0  0  0  0
   12.9280    6.5424   -1.2527 H   0  0  0  0  0  0  0  0  0  0  0  0
   12.9282    6.6804    0.5088 H   0  0  0  0  0  0  0  0  0  0  0  0
   12.6868    9.1650    0.3148 H   0  0  0  0  0  0  0  0  0  0  0  0
   12.6846    9.0279   -1.4464 H   0  0  0  0  0  0  0  0  0  0  0  0
   14.9537    7.9718   -1.3671 H   0  0  0  0  0  0  0  0  0  0  0  0
   14.9560    8.1088    0.3940 H   0  0  0  0  0  0  0  0  0  0  0  0
   14.7128   10.5941    0.2002 H   0  0  0  0  0  0  0  0  0  0  0  0
   14.7126   10.4561   -1.5609 H   0  0  0  0  0  0  0  0  0  0  0  0
   16.9819    9.3990   -1.4775 H   0  0  0  0  0  0  0  0  0  0  0  0
   16.9819    9.5394    0.2836 H   0  0  0  0  0  0  0  0  0  0  0  0
   16.7407   12.0239    0.0866 H   0  0  0  0  0  0  0  0  0  0  0  0
   16.7386   11.8845   -1.6751 H   0  0  0  0  0  0  0  0  0  0  0  0
   19.0078   10.8289   -1.5954 H   0  0  0  0  0  0  0  0  0  0  0  0
   19.0101   10.9661    0.1669 H   0  0  0  0  0  0  0  0  0  0  0  0
   18.7696   13.4504   -0.0285 H   0  0  0  0  0  0  0  0  0  0  0  0
   18.7696   13.3127   -1.7875 H   0  0  0  0  0  0  0  0  0  0  0  0
   21.0397   12.2591   -1.7067 H   0  0  0  0  0  0  0  0  0  0  0  0
   21.0399   12.3947    0.0543 H   0  0  0  0  0  0  0  0  0  0  0  0
   20.7989   14.8767   -0.1385 H   0  0  0  0  0  0  0  0  0  0  0  0
   20.7969   14.7426   -1.8940 H   0  0  0  0  0  0  0  0  0  0  0  0
   23.0657   13.6952   -1.8201 H   0  0  0  0  0  0  0  0  0  0  0  0
   23.0680   13.8272   -0.0598 H   0  0  0  0  0  0  0  0  0  0  0  0
   22.8323   16.3140   -0.2465 H   0  0  0  0  0  0  0  0  0  0  0  0
   22.8321   16.1812   -2.0071 H   0  0  0  0  0  0  0  0  0  0  0  0
   25.1067   15.1354   -1.9285 H   0  0  0  0  0  0  0  0  0  0  0  0
   25.1068   15.2681   -0.1675 H   0  0  0  0  0  0  0  0  0  0  0  0
   24.8834   17.7614   -0.3523 H   0  0  0  0  0  0  0  0  0  0  0  0
   24.8813   17.6279   -2.1177 H   0  0  0  0  0  0  0  0  0  0  0  0
   27.1319   16.5645   -2.0398 H   0  0  0  0  0  0  0  0  0  0  0  0
   27.1584   16.7154   -0.2750 H   0  0  0  0  0  0  0  0  0  0  0  0
   26.9909   19.2102   -0.4658 H   0  0  0  0  0  0  0  0  0  0  0  0
   26.9744   19.0879   -2.2277 H   0  0  0  0  0  0  0  0  0  0  0  0
   27.1036   92.2213  -49.9915 H   0  0  0  0  0  0  0  0  0  0  0  0
  1  2  1  0  0  0  0
  1 82  1  0  0  0  0
  2  3  1  0  0  0  0
  2 83  1  0  0  0  0
  2 84  1  0  0  0  0
  3  4  1  0  0  0  0
  3 85  1  0  0  0  0
  3 86  1  0  0  0  0
  4  5  1  0  0  0  0
  4 87  1  0  0  0  0
  4 88  1  0  0  0  0
  5  6  1  0  0  0  0
  5 89  1  0  0  0  0
  5 90  1  0  0  0  0
  6  7  1  0  0  0  0
  6 91  1  0  0  0  0
  6 92  1  0  0  0  0
  7  8  1  0  0  0  0
  7 93  1  0  0  0  0
  7 94  1  0  0  0  0
  8  9  1  0  0  0  0
  8 95  1  0  0  0  0
  8 96  1  0  0  0  0
  9 10  1  0  0  0  0
  9 97  1  0  0  0  0
  9 98  1  0  0  0  0
 10 11  1  0  0  0  0
 10 99  1  0  0  0  0
 10100  1  0  0  0  0
 11 12  1  0  0  0  0
 11101  1  0  0  0  0
 11102  1  0  0  0  0
 12 13  1  0  0  0  0
 12103  1  0  0  0  0
 12104  1  0  0  0  0
 13 14  1  0  0  0  0
 13105  1  0  0  0  0
 13106  1  0  0  0  0
 14 15  1  0  0  0  0
 14107  1  0  0  0  0
 14108  1  0  0  0  0
 15 16  1  0  0  0  0
 15109  1  0  0  0  0
 15110  1  0  0  0  0
 16 17  1  0  0  0  0
 16111  1  0  0  0  0
 16112  1  0  0  0  0
 17 18  1  0  0  0  0
 17113  1  0  0  0  0
 17114  1  0  0  0  0
 18 19  1  0  0  0  0
 18115  1  0  0  0  0
 18116  1  0  0  0  0
 19 20  1  0  0  0  0
 19117  1  0  0  0  0
 19118  1  0  0  0  0
 20 21  1  0  0  0  0
 20119  1  0  0  0  0
 20120  1  0  0  0  0
 21 22  1  0  0  0  0
 21121  1  0  0  0  0
 21122  1  0  0  0  0
 22 23  1  0  0  0  0
 22123  1  0  0  0  0
 22124  1  0  0  0  0
 23 24  1  0  0  0  0
 23125  1  0  0  0  0
 23126  1  0  0  0  0
 24 25  1  0  0  0  0
 24127  1  0  0  0  0
 24128  1  0  0  0  0
 25 26  1  0  0  0  0
 25129  1  0  0  0  0
 25130  1  0  0  0  0
 26 27  1  0  0  0  0
 26131  1  0  0  0  0
 26132  1  0  0  0  0
 27 28  1  0  0  0  0
 27133  1  0  0  0  0
 27134  1  0  0  0  0
 28 29  1  0  0  0  0
 29 30  1  0  0  0  0
 30 31  1  0  0  0  0
 31 32  1  0  0  0  0
 32 33  1  0  0  0  0
 33 34  1  0  0  0  0
 34 35  1  0  0  0  0
 35 36  1  0  0  0  0
 36 37  1  0  0  0  0
 37 38  1  0  0  0  0
 38 39  1  0  0  0  0
 39 40  1  0  0  0  0
 40 41  1  0  0  0  0
 41 42  1  0  0  0  0
 42 43  1  0  0  0  0
 43 44  1  0  0  0  0
 44 45  1  0  0  0  0
 45 46  1  0  0  0  0
 46 47  1  0  0  0  0
 47 48  1  0  0  0  0
 48 49  1  0  0  0  0
 49 50  1  0  0  0  0
 50 51  1  0  0  0  0
 51 52  1  0  0  0  0
 52 53  1  0  0  0  0
 53 54  1  0  0  0  0
 54 55  1  0  0  0  0
 55 56  1  0  0  0  0
 56 57  1  0  0  0  0
 57 58  1  0  0  0  0
 58 59  1  0  0  0  0
 59 60  1  0  0  0  0
 60 61  1  0  0  0  0
 61 62  1  0  0  0  0
 62 63  1  0  0  0  0
 63 64  1  0  0  0  0
 64 65  1  0  0  0  0
 65 66  1  0  0  0  0
 66 67  1  0  0  0  0
 67 68  1  0  0  0  0
 68 69  1  0  0  0  0
 69 70  1  0  0  0  0
 70 71  1  0  0  0  0
 71 72  1  0  0  0  0
 72 73  1  0  0  0  0
 73 74  1  0  0  0  0
 74 75  1  0  0  0  0
 75 76  1  0  0  0  0
 76 77  1  0  0  0  0
 77 78  1  0  0  0  0
 78 79  1  0  0  0  0
 79 80  1  0  0  0  0
 80 81  1  0  0  0  0
 81135  1  0  0  0  0
M  END
$$$$
