
 OpenBabel04232216443D

 66 67  0  0  0  0  0  0  0  0999 V2000
    5.9800    0.1922   -1.6282 C   0  0  0  0  0  0  0  0  0  0  0  0
    6.2285   -1.3377   -2.1507 C   0  0  0  0  0  0  0  0  0  0  0  0
    5.1329   -1.9326   -1.4942 C   0  0  0  0  0  0  0  0  0  0  0  0
    3.5513   -1.8770   -1.8117 C   0  0  0  0  0  0  0  0  0  0  0  0
    2.7600   -3.1652   -2.1925 C   0  0  0  0  0  0  0  0  0  0  0  0
    5.1946   -1.9778    0.0848 C   0  0  0  0  0  0  0  0  0  0  0  0
    5.1313   -3.4228    0.4490 C   0  0  0  0  0  0  0  0  0  0  0  0
    6.3625   -3.9453   -0.2016 C   0  0  0  0  0  0  0  0  0  0  0  0
    5.8279   -4.5710   -1.4575 C   0  0  0  0  0  0  0  0  0  0  0  0
    6.9985   -4.9754   -2.2054 C   0  0  0  0  0  0  0  0  0  0  0  0
    6.7445   -6.3181   -2.5233 C   0  0  0  0  0  0  0  0  0  0  0  0
    5.6055   -6.7469   -2.7080 O   0  0  0  0  0  0  0  0  0  0  0  0
    7.9211   -6.8283   -3.2112 N   0  0  0  0  0  0  0  0  0  0  0  0
    7.9393   -6.2445   -4.4565 C   0  0  0  0  0  0  0  0  0  0  0  0
    8.6785   -4.9009   -4.6140 C   0  0  0  0  0  0  0  0  0  0  0  0
    9.4080   -4.4208   -3.5549 C   0  0  0  0  0  0  0  0  0  0  0  0
   10.7722   -5.5635   -3.4131 C   0  0  0  0  0  0  0  0  0  0  0  0
   11.0227   -7.1040   -4.3799 C   0  0  0  0  0  0  0  0  0  0  0  0
   10.8294   -8.7180   -5.0553 C   0  0  0  0  0  0  0  0  0  0  0  0
    9.3779   -9.0622   -5.4120 C   0  0  0  0  0  0  0  0  0  0  0  0
    8.5051  -10.2742   -6.0517 C   0  0  0  0  0  0  0  0  0  0  0  0
    7.1569   -9.6202   -5.8356 C   0  0  0  0  0  0  0  0  0  0  0  0
    5.7299   -9.2053   -5.7821 C   0  0  0  0  0  0  0  0  0  0  0  0
    5.8909   -7.7800   -5.1270 C   0  0  0  0  0  0  0  0  0  0  0  0
    7.1008   -6.7513   -5.3980 C   0  0  0  0  0  0  0  0  0  0  0  0
    8.9350   -2.9174   -2.7265 C   0  0  0  0  0  0  0  0  0  0  0  0
    7.9114   -1.9423   -2.2906 C   0  0  0  0  0  0  0  0  0  0  0  0
    4.8974    0.3387   -1.3805 H   0  0  0  0  0  0  0  0  0  0  0  0
    6.1510    1.0077   -2.3299 H   0  0  0  0  0  0  0  0  0  0  0  0
    6.4503    0.4016   -0.6534 H   0  0  0  0  0  0  0  0  0  0  0  0
    3.2731   -1.0675   -2.4926 H   0  0  0  0  0  0  0  0  0  0  0  0
    3.0508   -1.5890   -0.8730 H   0  0  0  0  0  0  0  0  0  0  0  0
    2.5362   -3.2086   -3.2626 H   0  0  0  0  0  0  0  0  0  0  0  0
    1.7833   -3.1802   -1.6783 H   0  0  0  0  0  0  0  0  0  0  0  0
    3.2290   -4.1099   -1.9129 H   0  0  0  0  0  0  0  0  0  0  0  0
    4.3770   -1.4224    0.5656 H   0  0  0  0  0  0  0  0  0  0  0  0
    6.1131   -1.5299    0.4886 H   0  0  0  0  0  0  0  0  0  0  0  0
    4.2219   -3.8612    0.0187 H   0  0  0  0  0  0  0  0  0  0  0  0
    5.1362   -3.6406    1.5193 H   0  0  0  0  0  0  0  0  0  0  0  0
    6.9397   -4.6575    0.3815 H   0  0  0  0  0  0  0  0  0  0  0  0
    7.1008   -3.1681   -0.4375 H   0  0  0  0  0  0  0  0  0  0  0  0
    5.2527   -3.9761   -2.1866 H   0  0  0  0  0  0  0  0  0  0  0  0
    5.1616   -5.3664   -1.1590 H   0  0  0  0  0  0  0  0  0  0  0  0
    7.9260   -4.8817   -1.6497 H   0  0  0  0  0  0  0  0  0  0  0  0
    6.9785   -4.3047   -3.1029 H   0  0  0  0  0  0  0  0  0  0  0  0
    8.6551   -6.4965   -2.6034 H   0  0  0  0  0  0  0  0  0  0  0  0
    9.3338   -5.1074   -5.4957 H   0  0  0  0  0  0  0  0  0  0  0  0
   10.8879   -5.8660   -2.3592 H   0  0  0  0  0  0  0  0  0  0  0  0
   11.6941   -5.0091   -3.6587 H   0  0  0  0  0  0  0  0  0  0  0  0
   10.6712   -6.6552   -5.3070 H   0  0  0  0  0  0  0  0  0  0  0  0
   10.3308   -7.5121   -3.6311 H   0  0  0  0  0  0  0  0  0  0  0  0
   11.2440   -9.4847   -4.3886 H   0  0  0  0  0  0  0  0  0  0  0  0
   11.4162   -8.7698   -5.9847 H   0  0  0  0  0  0  0  0  0  0  0  0
    9.1453   -8.2327   -6.0859 H   0  0  0  0  0  0  0  0  0  0  0  0
    8.9184   -8.9147   -4.4331 H   0  0  0  0  0  0  0  0  0  0  0  0
    8.5716  -11.2396   -5.5402 H   0  0  0  0  0  0  0  0  0  0  0  0
    8.6631  -10.4186   -7.1284 H   0  0  0  0  0  0  0  0  0  0  0  0
    7.3795   -8.8041   -6.5191 H   0  0  0  0  0  0  0  0  0  0  0  0
    7.2503   -9.5996   -4.7402 H   0  0  0  0  0  0  0  0  0  0  0  0
    5.1203   -9.8293   -5.1019 H   0  0  0  0  0  0  0  0  0  0  0  0
    5.1974   -9.1148   -6.7241 H   0  0  0  0  0  0  0  0  0  0  0  0
    5.9467   -8.1373   -4.0615 H   0  0  0  0  0  0  0  0  0  0  0  0
    4.9818   -7.1881   -5.2566 H   0  0  0  0  0  0  0  0  0  0  0  0
    7.1713   -6.3730   -6.4076 H   0  0  0  0  0  0  0  0  0  0  0  0
    9.9358   -2.5957   -2.3236 H   0  0  0  0  0  0  0  0  0  0  0  0
    8.3947   -1.1075   -1.7109 H   0  0  0  0  0  0  0  0  0  0  0  0
  1  2  1  0  0  0  0
  1 28  1  0  0  0  0
  1 29  1  0  0  0  0
  1 30  1  0  0  0  0
  2  3  2  3  0  0  0
  2 27  1  0  0  0  0
  3  4  1  0  0  0  0
  3  6  1  0  0  0  0
  4  5  1  0  0  0  0
  4 31  1  0  0  0  0
  4 32  1  0  0  0  0
  5 33  1  0  0  0  0
  5 34  1  0  0  0  0
  5 35  1  0  0  0  0
  6  7  1  0  0  0  0
  6 36  1  0  0  0  0
  6 37  1  0  0  0  0
  7  8  1  0  0  0  0
  7 38  1  0  0  0  0
  7 39  1  0  0  0  0
  8  9  1  0  0  0  0
  8 40  1  0  0  0  0
  8 41  1  0  0  0  0
  9 10  1  0  0  0  0
  9 42  1  0  0  0  0
  9 43  1  0  0  0  0
 10 11  1  0  0  0  0
 10 44  1  0  0  0  0
 10 45  1  0  0  0  0
 11 12  2  0  0  0  0
 11 13  1  0  0  0  0
 13 14  1  0  0  0  0
 13 46  1  0  0  0  0
 14 15  1  0  0  0  0
 14 25  2  3  0  0  0
 15 16  2  3  0  0  0
 15 47  1  0  0  0  0
 16 17  1  0  0  0  0
 16 26  1  0  0  0  0
 17 18  1  0  0  0  0
 17 48  1  0  0  0  0
 17 49  1  0  0  0  0
 18 19  1  0  0  0  0
 18 50  1  0  0  0  0
 18 51  1  0  0  0  0
 19 20  1  0  0  0  0
 19 52  1  0  0  0  0
 19 53  1  0  0  0  0
 20 21  1  0  0  0  0
 20 54  1  0  0  0  0
 20 55  1  0  0  0  0
 21 22  1  0  0  0  0
 21 56  1  0  0  0  0
 21 57  1  0  0  0  0
 22 23  1  0  0  0  0
 22 58  1  0  0  0  0
 22 59  1  0  0  0  0
 23 24  1  0  0  0  0
 23 60  1  0  0  0  0
 23 61  1  0  0  0  0
 24 25  1  0  0  0  0
 24 62  1  0  0  0  0
 24 63  1  0  0  0  0
 25 64  1  0  0  0  0
 26 27  2  3  0  0  0
 26 65  1  0  0  0  0
 27 66  1  0  0  0  0
M  END
$$$$
