
 OpenBabel04232216483D

 50 51  0  0  0  0  0  0  0  0999 V2000
   -5.8215   -2.9960    5.8126 C   0  0  0  0  0  0  0  0  0  0  0  0
   -5.3625   -2.2502    4.5946 C   0  0  0  0  0  0  0  0  0  0  0  0
   -6.0866   -2.3046    3.3990 C   0  0  0  0  0  0  0  0  0  0  0  0
   -5.6345   -1.6229    2.2652 C   0  0  0  0  0  0  0  0  0  0  0  0
   -4.4455   -0.8824    2.3044 C   0  0  0  0  0  0  0  0  0  0  0  0
   -3.9498   -0.1591    1.0736 C   0  0  0  0  0  0  0  0  0  0  0  0
   -4.4701    1.2499    0.9825 C   0  0  0  0  0  0  0  0  0  0  0  0
   -5.1927    1.7279   -0.0446 C   0  0  0  0  0  0  0  0  0  0  0  0
   -5.7163    3.1371   -0.1257 C   0  0  0  0  0  0  0  0  0  0  0  0
   -7.2466    3.1462   -0.1911 C   0  0  0  0  0  0  0  0  0  0  0  0
   -7.8204    4.5630   -0.2726 C   0  0  0  0  0  0  0  0  0  0  0  0
   -9.3544    4.5523   -0.1190 C   0  0  0  0  0  0  0  0  0  0  0  0
  -10.0665    4.5242   -1.1197 O   0  0  0  0  0  0  0  0  0  0  0  0
   -9.8250    4.5476    1.2834 C   0  0  0  0  0  0  0  0  0  0  0  0
   -9.0321    4.5208    2.4464 C   0  0  0  0  0  0  0  0  0  0  0  0
  -10.1344    4.5126    3.2064 C   0  0  0  0  0  0  0  0  0  0  0  0
  -10.1584    4.4167    4.6994 C   0  0  0  0  0  0  0  0  0  0  0  0
  -11.1837    5.0354    5.5903 C   0  0  0  0  0  0  0  0  0  0  0  0
  -12.2955    5.3927    5.2152 O   0  0  0  0  0  0  0  0  0  0  0  0
  -10.7141    5.1383    7.0465 C   0  0  0  0  0  0  0  0  0  0  0  0
  -11.6959    5.8051    7.9797 C   0  0  0  0  0  0  0  0  0  0  0  0
  -10.9476    4.4988    2.0117 C   0  0  0  0  0  0  0  0  0  0  0  0
   -3.7331   -0.8129    3.5091 C   0  0  0  0  0  0  0  0  0  0  0  0
   -4.1864   -1.4930    4.6424 C   0  0  0  0  0  0  0  0  0  0  0  0
   -6.7590   -3.5308    5.6279 H   0  0  0  0  0  0  0  0  0  0  0  0
   -5.9886   -2.3014    6.6421 H   0  0  0  0  0  0  0  0  0  0  0  0
   -5.0675   -3.7334    6.1072 H   0  0  0  0  0  0  0  0  0  0  0  0
   -7.0067   -2.8815    3.3373 H   0  0  0  0  0  0  0  0  0  0  0  0
   -6.2135   -1.6790    1.3459 H   0  0  0  0  0  0  0  0  0  0  0  0
   -4.2173   -0.7406    0.1818 H   0  0  0  0  0  0  0  0  0  0  0  0
   -2.8527   -0.1320    1.0883 H   0  0  0  0  0  0  0  0  0  0  0  0
   -4.2225    1.9029    1.8167 H   0  0  0  0  0  0  0  0  0  0  0  0
   -5.4300    1.0753   -0.8832 H   0  0  0  0  0  0  0  0  0  0  0  0
   -5.3003    3.6149   -1.0201 H   0  0  0  0  0  0  0  0  0  0  0  0
   -5.3761    3.7225    0.7379 H   0  0  0  0  0  0  0  0  0  0  0  0
   -7.6440    2.6266    0.6904 H   0  0  0  0  0  0  0  0  0  0  0  0
   -7.5853    2.5726   -1.0622 H   0  0  0  0  0  0  0  0  0  0  0  0
   -7.5530    5.0432   -1.2209 H   0  0  0  0  0  0  0  0  0  0  0  0
   -7.3856    5.1999    0.5070 H   0  0  0  0  0  0  0  0  0  0  0  0
   -7.9649    4.4938    2.6555 H   0  0  0  0  0  0  0  0  0  0  0  0
   -9.1775    4.7832    5.0334 H   0  0  0  0  0  0  0  0  0  0  0  0
  -10.1573    3.3473    4.9483 H   0  0  0  0  0  0  0  0  0  0  0  0
   -9.7754    5.7037    7.0591 H   0  0  0  0  0  0  0  0  0  0  0  0
  -10.4976    4.1229    7.4036 H   0  0  0  0  0  0  0  0  0  0  0  0
  -11.8950    6.8346    7.6646 H   0  0  0  0  0  0  0  0  0  0  0  0
  -11.2912    5.8316    8.9960 H   0  0  0  0  0  0  0  0  0  0  0  0
  -12.6458    5.2628    8.0030 H   0  0  0  0  0  0  0  0  0  0  0  0
  -12.0157    4.4482    1.7872 H   0  0  0  0  0  0  0  0  0  0  0  0
   -2.8143   -0.2342    3.5706 H   0  0  0  0  0  0  0  0  0  0  0  0
   -3.6114   -1.4341    5.5638 H   0  0  0  0  0  0  0  0  0  0  0  0
  1  2  1  0  0  0  0
  1 25  1  0  0  0  0
  1 26  1  0  0  0  0
  1 27  1  0  0  0  0
  2  3  1  0  0  0  0
  2 24  2  0  0  0  0
  3  4  2  0  0  0  0
  3 28  1  0  0  0  0
  4  5  1  0  0  0  0
  4 29  1  0  0  0  0
  5  6  1  0  0  0  0
  5 23  2  0  0  0  0
  6  7  1  0  0  0  0
  6 30  1  0  0  0  0
  6 31  1  0  0  0  0
  7  8  2  3  0  0  0
  7 32  1  0  0  0  0
  8  9  1  0  0  0  0
  8 33  1  0  0  0  0
  9 10  1  0  0  0  0
  9 34  1  0  0  0  0
  9 35  1  0  0  0  0
 10 11  1  0  0  0  0
 10 36  1  0  0  0  0
 10 37  1  0  0  0  0
 11 12  1  0  0  0  0
 11 38  1  0  0  0  0
 11 39  1  0  0  0  0
 12 13  2  0  0  0  0
 12 14  1  0  0  0  0
 14 15  1  0  0  0  0
 14 22  2  0  0  0  0
 15 16  2  0  0  0  0
 15 40  1  0  0  0  0
 16 17  1  0  0  0  0
 16 22  1  0  0  0  0
 17 18  1  0  0  0  0
 17 41  1  0  0  0  0
 17 42  1  0  0  0  0
 18 19  2  0  0  0  0
 18 20  1  0  0  0  0
 20 21  1  0  0  0  0
 20 43  1  0  0  0  0
 20 44  1  0  0  0  0
 21 45  1  0  0  0  0
 21 46  1  0  0  0  0
 21 47  1  0  0  0  0
 22 48  1  0  0  0  0
 23 24  1  0  0  0  0
 23 49  1  0  0  0  0
 24 50  1  0  0  0  0
M  END
$$$$
