
 OpenBabel04232217013D

 46 50  0  0  0  0  0  0  0  0999 V2000
    6.8680    6.4390    0.6528 O   0  0  0  0  0  0  0  0  0  0  0  0
    6.8426    6.0097   -0.6784 N   0  0  0  0  0  0  0  0  0  0  0  0
    6.9637    6.9727   -1.6926 C   0  0  0  0  0  0  0  0  0  0  0  0
    7.5031    8.3570   -1.4635 C   0  0  0  0  0  0  0  0  0  0  0  0
    6.3943    6.5129   -2.8240 C   0  0  0  0  0  0  0  0  0  0  0  0
    6.5196    7.0946   -4.1935 C   0  0  0  0  0  0  0  0  0  0  0  0
    6.9144    6.0462   -5.0837 O   0  0  0  0  0  0  0  0  0  0  0  0
    5.6878    5.3133   -2.5684 N   0  0  0  0  0  0  0  0  0  0  0  0
    4.5246    4.9131   -3.3441 C   0  0  0  0  0  0  0  0  0  0  0  0
    5.7666    5.0302   -1.1032 C   0  0  0  0  0  0  0  0  0  0  0  0
    4.5146    5.3898   -0.3350 C   0  0  0  0  0  0  0  0  0  0  0  0
    4.3279    4.1077    0.3530 C   0  0  0  0  0  0  0  0  0  0  0  0
    5.4025    3.4218    0.5755 N   0  0  0  0  0  0  0  0  0  0  0  0
    5.9209    3.5477   -0.7026 C   0  0  0  0  0  0  0  0  0  0  0  0
    5.2261    2.4596   -1.5291 C   0  0  0  0  0  0  0  0  0  0  0  0
    4.0688    1.8133   -1.2047 C   0  0  0  0  0  0  0  0  0  0  0  0
    3.1964    1.9872    0.0297 C   0  0  0  0  0  0  0  0  0  0  0  0
    2.9324    3.4076    0.4609 C   0  0  0  0  0  0  0  0  0  0  0  0
    1.5856    3.7698   -0.3106 C   0  0  0  0  0  0  0  0  0  0  0  0
    1.5634    4.9487    0.5805 C   0  0  0  0  0  0  0  0  0  0  0  0
    1.4444    6.3206    0.4250 C   0  0  0  0  0  0  0  0  0  0  0  0
    2.1043    7.1091    1.3533 C   0  0  0  0  0  0  0  0  0  0  0  0
    2.7636    6.5034    2.4379 C   0  0  0  0  0  0  0  0  0  0  0  0
    2.8128    5.0920    2.5840 C   0  0  0  0  0  0  0  0  0  0  0  0
    2.2678    4.2715    1.5837 C   0  0  0  0  0  0  0  0  0  0  0  0
    6.2895    7.2251    0.6745 H   0  0  0  0  0  0  0  0  0  0  0  0
    7.0993    8.7735   -0.5401 H   0  0  0  0  0  0  0  0  0  0  0  0
    7.1745    9.0367   -2.2513 H   0  0  0  0  0  0  0  0  0  0  0  0
    8.5903    8.3713   -1.4102 H   0  0  0  0  0  0  0  0  0  0  0  0
    7.2917    7.8703   -4.2347 H   0  0  0  0  0  0  0  0  0  0  0  0
    5.5772    7.5239   -4.5422 H   0  0  0  0  0  0  0  0  0  0  0  0
    7.2781    5.3344   -4.5226 H   0  0  0  0  0  0  0  0  0  0  0  0
    4.2871    5.6359   -4.1308 H   0  0  0  0  0  0  0  0  0  0  0  0
    3.6116    4.8206   -2.7442 H   0  0  0  0  0  0  0  0  0  0  0  0
    4.7009    3.9520   -3.8296 H   0  0  0  0  0  0  0  0  0  0  0  0
    3.6777    5.6894   -0.9458 H   0  0  0  0  0  0  0  0  0  0  0  0
    4.6450    6.1228    0.4621 H   0  0  0  0  0  0  0  0  0  0  0  0
    5.7142    2.2551   -2.4870 H   0  0  0  0  0  0  0  0  0  0  0  0
    3.6737    1.0871   -1.9222 H   0  0  0  0  0  0  0  0  0  0  0  0
    2.4509    1.2136    0.1967 H   0  0  0  0  0  0  0  0  0  0  0  0
    0.7553    3.0660   -0.1294 H   0  0  0  0  0  0  0  0  0  0  0  0
    1.6700    3.9072   -1.3887 H   0  0  0  0  0  0  0  0  0  0  0  0
    1.0591    6.7388   -0.5001 H   0  0  0  0  0  0  0  0  0  0  0  0
    2.1977    8.1803    1.1774 H   0  0  0  0  0  0  0  0  0  0  0  0
    3.3390    7.1362    3.1130 H   0  0  0  0  0  0  0  0  0  0  0  0
    3.4820    4.6758    3.3356 H   0  0  0  0  0  0  0  0  0  0  0  0
  1  2  1  0  0  0  0
  1 26  1  0  0  0  0
  2  3  1  0  0  0  0
  2 10  1  0  0  0  0
  3  4  1  0  0  0  0
  3  5  2  0  0  0  0
  4 27  1  0  0  0  0
  4 28  1  0  0  0  0
  4 29  1  0  0  0  0
  5  6  1  0  0  0  0
  5  8  1  0  0  0  0
  6  7  1  0  0  0  0
  6 30  1  0  0  0  0
  6 31  1  0  0  0  0
  7 32  1  0  0  0  0
  8  9  1  0  0  0  0
  8 10  1  0  0  0  0
  9 33  1  0  0  0  0
  9 34  1  0  0  0  0
  9 35  1  0  0  0  0
 10 11  1  0  0  0  0
 10 14  2  0  0  0  0
 11 12  1  0  0  0  0
 11 36  1  0  0  0  0
 11 37  1  0  0  0  0
 12 13  2  0  0  0  0
 12 18  1  0  0  0  0
 13 14  1  0  0  0  0
 14 15  1  0  0  0  0
 15 16  2  0  0  0  0
 15 38  1  0  0  0  0
 16 17  1  0  0  0  0
 16 39  1  0  0  0  0
 17 18  2  0  0  0  0
 17 40  1  0  0  0  0
 18 19  1  0  0  0  0
 18 25  1  0  0  0  0
 19 20  1  0  0  0  0
 19 41  1  0  0  0  0
 19 42  1  0  0  0  0
 20 21  1  0  0  0  0
 20 25  2  0  0  0  0
 21 22  2  0  0  0  0
 21 43  1  0  0  0  0
 22 23  1  0  0  0  0
 22 44  1  0  0  0  0
 23 24  2  0  0  0  0
 23 45  1  0  0  0  0
 24 25  1  0  0  0  0
 24 46  1  0  0  0  0
M  END
$$$$
