
 OpenBabel04232216473D

 51 52  0  0  1  0  0  0  0  0999 V2000
    5.2086   -0.2439   -0.3562 C   0  0  0  0  0  0  0  0  0  0  0  0
    6.0480   -1.0213    0.6273 C   0  0  0  0  0  0  0  0  0  0  0  0
    5.2677   -1.5182    1.6284 C   0  0  0  0  0  0  0  0  0  0  0  0
    5.6789   -2.1921    2.8234 C   0  0  0  0  0  0  0  0  0  0  0  0
    5.6778   -1.5969    4.0432 C   0  0  0  0  0  0  0  0  0  0  0  0
    4.4133   -1.0874    4.5588 C   0  0  0  0  0  0  0  0  0  0  0  0
    4.2258   -0.5080    5.7351 C   0  0  0  0  0  0  0  0  0  0  0  0
    6.9494   -1.4234    4.8957 C   0  0  0  0  0  0  0  0  0  0  0  0
    8.1259   -2.5031    4.7809 C   0  0  3  0  0  0  0  0  0  0  0  0
    7.4381   -3.9080    4.8077 C   0  0  0  0  0  0  0  0  0  0  0  0
    8.2233   -5.1983    4.7710 C   0  0  0  0  0  0  0  0  0  0  0  0
    8.6041   -1.9860    3.4734 C   0  0  0  0  0  0  0  0  0  0  0  0
    8.5453   -2.5554    2.2749 C   0  0  0  0  0  0  0  0  0  0  0  0
    8.9181   -1.7735    1.1615 C   0  0  0  0  0  0  0  0  0  0  0  0
   10.2882   -1.7679    0.9897 C   0  0  0  0  0  0  0  0  0  0  0  0
   11.5277   -2.1092    2.0374 C   0  0  0  0  0  0  0  0  0  0  0  0
   11.1706   -2.4693    3.5086 C   0  0  0  0  0  0  0  0  0  0  0  0
   11.8414   -2.8241    4.8218 C   0  0  0  0  0  0  0  0  0  0  0  0
   10.6911   -3.0694    5.9058 C   0  0  0  0  0  0  0  0  0  0  0  0
    9.2778   -2.3099    5.8822 C   0  0  0  0  0  0  0  0  0  0  0  0
    7.6985   -1.0476    0.3403 C   0  0  0  0  0  0  0  0  0  0  0  0
    4.1365   -0.2236   -0.0752 H   0  0  0  0  0  0  0  0  0  0  0  0
    5.2276   -0.6817   -1.3524 H   0  0  0  0  0  0  0  0  0  0  0  0
    5.5006    0.8028   -0.3811 H   0  0  0  0  0  0  0  0  0  0  0  0
    4.1800   -1.3697    1.6141 H   0  0  0  0  0  0  0  0  0  0  0  0
    6.4368   -2.9075    2.4790 H   0  0  0  0  0  0  0  0  0  0  0  0
    3.5295   -1.3007    3.9613 H   0  0  0  0  0  0  0  0  0  0  0  0
    5.0168   -0.2858    6.4527 H   0  0  0  0  0  0  0  0  0  0  0  0
    3.2171   -0.2181    6.0511 H   0  0  0  0  0  0  0  0  0  0  0  0
    6.7892   -1.1878    5.9458 H   0  0  0  0  0  0  0  0  0  0  0  0
    7.3117   -0.4420    4.5106 H   0  0  0  0  0  0  0  0  0  0  0  0
    6.8004   -4.0210    3.9356 H   0  0  0  0  0  0  0  0  0  0  0  0
    6.7344   -3.9399    5.6471 H   0  0  0  0  0  0  0  0  0  0  0  0
    9.1518   -5.1251    4.2012 H   0  0  0  0  0  0  0  0  0  0  0  0
    7.6034   -5.9494    4.2549 H   0  0  0  0  0  0  0  0  0  0  0  0
    8.4022   -5.5811    5.7731 H   0  0  0  0  0  0  0  0  0  0  0  0
    8.9723   -0.9520    3.4974 H   0  0  0  0  0  0  0  0  0  0  0  0
    8.2171   -3.5695    2.0860 H   0  0  0  0  0  0  0  0  0  0  0  0
   10.6687   -1.5028    0.0058 H   0  0  0  0  0  0  0  0  0  0  0  0
   12.1288   -1.1887    2.0798 H   0  0  0  0  0  0  0  0  0  0  0  0
   12.1657   -2.8858    1.6080 H   0  0  0  0  0  0  0  0  0  0  0  0
   10.5188   -3.3314    3.3995 H   0  0  0  0  0  0  0  0  0  0  0  0
   10.7625   -1.5185    3.8397 H   0  0  0  0  0  0  0  0  0  0  0  0
   12.5108   -2.0279    5.1722 H   0  0  0  0  0  0  0  0  0  0  0  0
   12.4557   -3.7328    4.7461 H   0  0  0  0  0  0  0  0  0  0  0  0
   11.1504   -2.8053    6.8753 H   0  0  0  0  0  0  0  0  0  0  0  0
   10.5143   -4.1455    5.9881 H   0  0  0  0  0  0  0  0  0  0  0  0
    9.5112   -1.2396    5.9532 H   0  0  0  0  0  0  0  0  0  0  0  0
    8.8034   -2.5595    6.8449 H   0  0  0  0  0  0  0  0  0  0  0  0
    7.7997   -1.3426   -0.7069 H   0  0  0  0  0  0  0  0  0  0  0  0
    7.9389    0.0267    0.3971 H   0  0  0  0  0  0  0  0  0  0  0  0
  1  2  1  0  0  0  0
  1 22  1  0  0  0  0
  1 23  1  0  0  0  0
  1 24  1  0  0  0  0
  2  3  2  3  0  0  0
  2 21  1  0  0  0  0
  3  4  1  0  0  0  0
  3 25  1  0  0  0  0
  4  5  2  3  0  0  0
  4 26  1  0  0  0  0
  5  6  1  0  0  0  0
  5  8  1  0  0  0  0
  6  7  2  0  0  0  0
  6 27  1  0  0  0  0
  7 28  1  0  0  0  0
  7 29  1  0  0  0  0
  8  9  1  0  0  0  0
  8 30  1  0  0  0  0
  8 31  1  0  0  0  0
  9 10  1  0  0  0  0
  9 12  1  0  0  0  0
  9 20  1  0  0  0  0
 10 11  1  0  0  0  0
 10 32  1  0  0  0  0
 10 33  1  0  0  0  0
 11 34  1  0  0  0  0
 11 35  1  0  0  0  0
 11 36  1  0  0  0  0
 12 13  2  3  0  0  0
 12 37  1  0  0  0  0
 13 14  1  0  0  0  0
 13 38  1  0  0  0  0
 14 15  2  3  0  0  0
 14 21  1  0  0  0  0
 15 16  1  0  0  0  0
 15 39  1  0  0  0  0
 16 17  1  0  0  0  0
 16 40  1  0  0  0  0
 16 41  1  0  0  0  0
 17 18  1  0  0  0  0
 17 42  1  0  0  0  0
 17 43  1  0  0  0  0
 18 19  1  0  0  0  0
 18 44  1  0  0  0  0
 18 45  1  0  0  0  0
 19 20  1  0  0  0  0
 19 46  1  0  0  0  0
 19 47  1  0  0  0  0
 20 48  1  0  0  0  0
 20 49  1  0  0  0  0
 21 50  1  0  0  0  0
 21 51  1  0  0  0  0
M  END
$$$$
