
 OpenBabel04232216523D

 54 53  0  0  0  0  0  0  0  0999 V2000
    3.5741   -4.0294   -3.0342 C   0  0  0  0  0  0  0  0  0  0  0  0
    4.4241   -3.0158   -2.2924 C   0  0  0  0  0  0  0  0  0  0  0  0
    4.9440   -1.9570   -3.2529 C   0  0  0  0  0  0  0  0  0  0  0  0
    5.7985   -0.9396   -2.5127 C   0  0  0  0  0  0  0  0  0  0  0  0
    6.3126    0.1157   -3.4782 C   0  0  0  0  0  0  0  0  0  0  0  0
    7.1647    1.1330   -2.7375 C   0  0  0  0  0  0  0  0  0  0  0  0
    7.6810    2.1880   -3.7035 C   0  0  0  0  0  0  0  0  0  0  0  0
    8.5296    3.2052   -2.9609 C   0  0  0  0  0  0  0  0  0  0  0  0
    9.0409    4.2471   -3.9086 C   0  0  0  0  0  0  0  0  0  0  0  0
   10.3492    4.4537   -4.0879 C   0  0  0  0  0  0  0  0  0  0  0  0
   10.8600    5.4897   -5.0404 C   0  0  0  0  0  0  0  0  0  0  0  0
   12.1993    5.0635   -5.6203 C   0  0  0  0  0  0  0  0  0  0  0  0
   12.7162    6.1238   -6.5789 C   0  0  0  0  0  0  0  0  0  0  0  0
   14.0565    5.6998   -7.1559 C   0  0  0  0  0  0  0  0  0  0  0  0
   14.5716    6.7592   -8.1162 C   0  0  0  0  0  0  0  0  0  0  0  0
   15.9129    6.3359   -8.6944 C   0  0  0  0  0  0  0  0  0  0  0  0
   16.4352    7.3916   -9.6571 C   0  0  0  0  0  0  0  0  0  0  0  0
   17.7728    6.9663  -10.2318 C   0  0  0  0  0  0  0  0  0  0  0  0
    3.2011   -4.7894   -2.3435 H   0  0  0  0  0  0  0  0  0  0  0  0
    4.1595   -4.5270   -3.8140 H   0  0  0  0  0  0  0  0  0  0  0  0
    2.7167   -3.5409   -3.5082 H   0  0  0  0  0  0  0  0  0  0  0  0
    5.2646   -3.5251   -1.8068 H   0  0  0  0  0  0  0  0  0  0  0  0
    3.8285   -2.5436   -1.5024 H   0  0  0  0  0  0  0  0  0  0  0  0
    4.1028   -1.4476   -3.7395 H   0  0  0  0  0  0  0  0  0  0  0  0
    5.5373   -2.4296   -4.0457 H   0  0  0  0  0  0  0  0  0  0  0  0
    6.6440   -1.4441   -2.0290 H   0  0  0  0  0  0  0  0  0  0  0  0
    5.2083   -0.4626   -1.7205 H   0  0  0  0  0  0  0  0  0  0  0  0
    5.4681    0.6206   -3.9635 H   0  0  0  0  0  0  0  0  0  0  0  0
    6.9047   -0.3598   -4.2701 H   0  0  0  0  0  0  0  0  0  0  0  0
    8.0082    0.6274   -2.2507 H   0  0  0  0  0  0  0  0  0  0  0  0
    6.5719    1.6087   -1.9463 H   0  0  0  0  0  0  0  0  0  0  0  0
    6.8348    2.6877   -4.1926 H   0  0  0  0  0  0  0  0  0  0  0  0
    8.2715    1.7073   -4.4951 H   0  0  0  0  0  0  0  0  0  0  0  0
    9.3639    2.6956   -2.4677 H   0  0  0  0  0  0  0  0  0  0  0  0
    7.9383    3.6924   -2.1790 H   0  0  0  0  0  0  0  0  0  0  0  0
    8.3121    4.8419   -4.4478 H   0  0  0  0  0  0  0  0  0  0  0  0
   11.0759    3.8599   -3.5425 H   0  0  0  0  0  0  0  0  0  0  0  0
   10.9725    6.4391   -4.5073 H   0  0  0  0  0  0  0  0  0  0  0  0
   10.1421    5.6420   -5.8540 H   0  0  0  0  0  0  0  0  0  0  0  0
   12.0982    4.1045   -6.1447 H   0  0  0  0  0  0  0  0  0  0  0  0
   12.9293    4.9126   -4.8117 H   0  0  0  0  0  0  0  0  0  0  0  0
   12.8228    7.0821   -6.0553 H   0  0  0  0  0  0  0  0  0  0  0  0
   11.9931    6.2763   -7.3899 H   0  0  0  0  0  0  0  0  0  0  0  0
   13.9499    4.7416   -7.6791 H   0  0  0  0  0  0  0  0  0  0  0  0
   14.7795    5.5479   -6.3448 H   0  0  0  0  0  0  0  0  0  0  0  0
   14.6770    7.7168   -7.5914 H   0  0  0  0  0  0  0  0  0  0  0  0
   13.8472    6.9104   -8.9260 H   0  0  0  0  0  0  0  0  0  0  0  0
   15.8038    5.3761   -9.2148 H   0  0  0  0  0  0  0  0  0  0  0  0
   16.6331    6.1820   -7.8811 H   0  0  0  0  0  0  0  0  0  0  0  0
   16.5462    8.3500   -9.1366 H   0  0  0  0  0  0  0  0  0  0  0  0
   15.7165    7.5437  -10.4708 H   0  0  0  0  0  0  0  0  0  0  0  0
   18.5099    6.8303   -9.4339 H   0  0  0  0  0  0  0  0  0  0  0  0
   18.1470    7.7251  -10.9230 H   0  0  0  0  0  0  0  0  0  0  0  0
   17.6764    6.0203  -10.7744 H   0  0  0  0  0  0  0  0  0  0  0  0
  1  2  1  0  0  0  0
  1 19  1  0  0  0  0
  1 20  1  0  0  0  0
  1 21  1  0  0  0  0
  2  3  1  0  0  0  0
  2 22  1  0  0  0  0
  2 23  1  0  0  0  0
  3  4  1  0  0  0  0
  3 24  1  0  0  0  0
  3 25  1  0  0  0  0
  4  5  1  0  0  0  0
  4 26  1  0  0  0  0
  4 27  1  0  0  0  0
  5  6  1  0  0  0  0
  5 28  1  0  0  0  0
  5 29  1  0  0  0  0
  6  7  1  0  0  0  0
  6 30  1  0  0  0  0
  6 31  1  0  0  0  0
  7  8  1  0  0  0  0
  7 32  1  0  0  0  0
  7 33  1  0  0  0  0
  8  9  1  0  0  0  0
  8 34  1  0  0  0  0
  8 35  1  0  0  0  0
  9 10  2  3  0  0  0
  9 36  1  0  0  0  0
 10 11  1  0  0  0  0
 10 37  1  0  0  0  0
 11 12  1  0  0  0  0
 11 38  1  0  0  0  0
 11 39  1  0  0  0  0
 12 13  1  0  0  0  0
 12 40  1  0  0  0  0
 12 41  1  0  0  0  0
 13 14  1  0  0  0  0
 13 42  1  0  0  0  0
 13 43  1  0  0  0  0
 14 15  1  0  0  0  0
 14 44  1  0  0  0  0
 14 45  1  0  0  0  0
 15 16  1  0  0  0  0
 15 46  1  0  0  0  0
 15 47  1  0  0  0  0
 16 17  1  0  0  0  0
 16 48  1  0  0  0  0
 16 49  1  0  0  0  0
 17 18  1  0  0  0  0
 17 50  1  0  0  0  0
 17 51  1  0  0  0  0
 18 52  1  0  0  0  0
 18 53  1  0  0  0  0
 18 54  1  0  0  0  0
M  END
$$$$
