
 OpenBabel04232216433D

 51 53  0  0  0  0  0  0  0  0999 V2000
    0.8179   -0.6210    1.3996 C   0  0  0  0  0  0  0  0  0  0  0  0
    1.1222    0.7227    0.6682 C   0  0  0  0  0  0  0  0  0  0  0  0
    2.5783    0.7902    0.1806 C   0  0  0  0  0  0  0  0  0  0  0  0
    3.0061   -0.6446   -0.0265 C   0  0  0  0  0  0  0  0  0  0  0  0
    2.5096   -1.3075   -1.1134 C   0  0  0  0  0  0  0  0  0  0  0  0
    3.3530   -1.2199   -2.2985 C   0  0  0  0  0  0  0  0  0  0  0  0
    4.3522   -2.1212   -2.2412 C   0  0  0  0  0  0  0  0  0  0  0  0
    5.5762   -1.5278   -1.6058 C   0  0  0  0  0  0  0  0  0  0  0  0
    6.7929   -2.3968   -1.8070 C   0  0  0  0  0  0  0  0  0  0  0  0
    7.6760   -1.5846   -2.7307 C   0  0  0  0  0  0  0  0  0  0  0  0
    8.0891   -0.2773   -2.0611 C   0  0  0  0  0  0  0  0  0  0  0  0
    8.5183   -0.5669   -0.6407 N   0  0  0  0  0  0  0  0  0  0  0  0
    9.9911   -0.4628   -0.5833 C   0  0  0  0  0  0  0  0  0  0  0  0
   10.7958   -1.5748    0.0287 C   0  0  0  0  0  0  0  0  0  0  0  0
    5.4516   -0.4201   -0.9649 N   0  0  0  0  0  0  0  0  0  0  0  0
    6.2828    0.2173    0.0315 C   0  0  0  0  0  0  0  0  0  0  0  0
    7.4583   -0.6201    0.3794 C   0  0  0  0  0  0  0  0  0  0  0  0
    7.1821   -1.5760    1.3175 C   0  0  0  0  0  0  0  0  0  0  0  0
    5.8403   -2.3590    1.5296 C   0  0  0  0  0  0  0  0  0  0  0  0
    6.2975   -3.8378    1.6662 C   0  0  0  0  0  0  0  0  0  0  0  0
    4.4492   -2.2514    1.5161 C   0  0  0  0  0  0  0  0  0  0  0  0
    3.2414   -1.3268    1.2484 C   0  0  0  0  0  0  0  0  0  0  0  0
    2.0595   -1.4371    1.8936 C   0  0  0  0  0  0  0  0  0  0  0  0
    0.2343   -1.2516    0.6962 H   0  0  0  0  0  0  0  0  0  0  0  0
    0.1268   -0.4183    2.2236 H   0  0  0  0  0  0  0  0  0  0  0  0
    0.9142    1.5723    1.3233 H   0  0  0  0  0  0  0  0  0  0  0  0
    0.4505    0.8396   -0.1939 H   0  0  0  0  0  0  0  0  0  0  0  0
    3.2052    1.2799    0.9409 H   0  0  0  0  0  0  0  0  0  0  0  0
    2.6605    1.3955   -0.7301 H   0  0  0  0  0  0  0  0  0  0  0  0
    2.1867   -2.3426   -0.9615 H   0  0  0  0  0  0  0  0  0  0  0  0
    3.6124   -0.1943   -2.5765 H   0  0  0  0  0  0  0  0  0  0  0  0
    4.1855   -3.1088   -1.8029 H   0  0  0  0  0  0  0  0  0  0  0  0
    6.5081   -3.3397   -2.2835 H   0  0  0  0  0  0  0  0  0  0  0  0
    7.3004   -2.7210   -0.9010 H   0  0  0  0  0  0  0  0  0  0  0  0
    7.1148   -1.3566   -3.6449 H   0  0  0  0  0  0  0  0  0  0  0  0
    8.5549   -2.1703   -3.0113 H   0  0  0  0  0  0  0  0  0  0  0  0
    7.2985    0.4765   -2.1175 H   0  0  0  0  0  0  0  0  0  0  0  0
    8.8727    0.1924   -2.6654 H   0  0  0  0  0  0  0  0  0  0  0  0
   10.2941    0.5257   -0.2279 H   0  0  0  0  0  0  0  0  0  0  0  0
   10.3634   -0.4919   -1.6227 H   0  0  0  0  0  0  0  0  0  0  0  0
   10.8010   -1.5143    1.1223 H   0  0  0  0  0  0  0  0  0  0  0  0
   11.8339   -1.4840   -0.3067 H   0  0  0  0  0  0  0  0  0  0  0  0
   10.4480   -2.5661   -0.2839 H   0  0  0  0  0  0  0  0  0  0  0  0
    5.7016    0.4258    0.9474 H   0  0  0  0  0  0  0  0  0  0  0  0
    6.6131    1.2205   -0.2688 H   0  0  0  0  0  0  0  0  0  0  0  0
    8.0428   -2.1544    1.6597 H   0  0  0  0  0  0  0  0  0  0  0  0
    7.2200   -4.0279    1.0996 H   0  0  0  0  0  0  0  0  0  0  0  0
    5.5742   -4.5386    1.2309 H   0  0  0  0  0  0  0  0  0  0  0  0
    6.4802   -4.1085    2.7090 H   0  0  0  0  0  0  0  0  0  0  0  0
    3.9614   -3.2084    1.7565 H   0  0  0  0  0  0  0  0  0  0  0  0
    1.8712   -2.1303    2.6830 H   0  0  0  0  0  0  0  0  0  0  0  0
  1  2  1  0  0  0  0
  1 23  1  0  0  0  0
  1 24  1  0  0  0  0
  1 25  1  0  0  0  0
  2  3  1  0  0  0  0
  2 26  1  0  0  0  0
  2 27  1  0  0  0  0
  3  4  1  0  0  0  0
  3 28  1  0  0  0  0
  3 29  1  0  0  0  0
  4  5  2  3  0  0  0
  4 22  1  0  0  0  0
  5  6  1  0  0  0  0
  5 30  1  0  0  0  0
  6  7  2  3  0  0  0
  6 31  1  0  0  0  0
  7  8  1  0  0  0  0
  7 32  1  0  0  0  0
  8  9  1  0  0  0  0
  8 15  2  0  0  0  0
  9 10  1  0  0  0  0
  9 33  1  0  0  0  0
  9 34  1  0  0  0  0
 10 11  1  0  0  0  0
 10 35  1  0  0  0  0
 10 36  1  0  0  0  0
 11 12  1  0  0  0  0
 11 37  1  0  0  0  0
 11 38  1  0  0  0  0
 12 13  1  0  0  0  0
 12 17  1  0  0  0  0
 13 14  1  0  0  0  0
 13 39  1  0  0  0  0
 13 40  1  0  0  0  0
 14 41  1  0  0  0  0
 14 42  1  0  0  0  0
 14 43  1  0  0  0  0
 15 16  1  0  0  0  0
 16 17  1  0  0  0  0
 16 44  1  0  0  0  0
 16 45  1  0  0  0  0
 17 18  2  3  0  0  0
 18 19  1  0  0  0  0
 18 46  1  0  0  0  0
 19 20  1  0  0  0  0
 19 21  2  3  0  0  0
 20 47  1  0  0  0  0
 20 48  1  0  0  0  0
 20 49  1  0  0  0  0
 21 22  1  0  0  0  0
 21 50  1  0  0  0  0
 22 23  2  0  0  0  0
 23 51  1  0  0  0  0
M  END
$$$$
