
 OpenBabel04232216553D

 69 71  0  0  0  0  0  0  0  0999 V2000
   -2.4058    0.1298    0.0588 C   0  0  0  0  0  0  0  0  0  0  0  0
   -1.3615   -0.8821    0.4517 N   0  0  0  0  0  0  0  0  0  0  0  0
   -0.0538   -0.9170   -0.3911 C   0  0  0  0  0  0  0  0  0  0  0  0
    1.3686   -1.1687   -0.5876 C   0  0  0  0  0  0  0  0  0  0  0  0
    1.5648   -0.6099   -2.0570 C   0  0  0  0  0  0  0  0  0  0  0  0
    2.7349   -1.6054    0.3961 N   0  0  0  0  0  0  0  0  0  0  0  0
    2.7009   -2.8007    1.5068 C   0  0  0  0  0  0  0  0  0  0  0  0
    2.9167   -2.4978    3.1252 C   0  0  0  0  0  0  0  0  0  0  0  0
    2.0860   -2.0340    4.3860 C   0  0  0  0  0  0  0  0  0  0  0  0
    0.6793   -2.4320    4.8084 C   0  0  0  0  0  0  0  0  0  0  0  0
    0.2837   -3.9128    4.8221 C   0  0  0  0  0  0  0  0  0  0  0  0
    0.7977   -4.7707    5.9635 C   0  0  0  0  0  0  0  0  0  0  0  0
    0.1034   -6.1423    5.8565 C   0  0  0  0  0  0  0  0  0  0  0  0
    0.5077   -7.1520    6.9326 C   0  0  0  0  0  0  0  0  0  0  0  0
    4.2278   -0.9093    0.5641 C   0  0  0  0  0  0  0  0  0  0  0  0
    5.1854   -1.7985    1.7360 C   0  0  0  0  0  0  0  0  0  0  0  0
    6.7054   -1.7985    1.7360 C   0  0  0  0  0  0  0  0  0  0  0  0
   -2.0156   -1.7985    1.7360 C   0  0  0  0  0  0  0  0  0  0  0  0
   -0.7399   -2.5311    2.1798 C   0  0  0  0  0  0  0  0  0  0  0  0
    0.3631   -1.7259    1.9917 C   0  0  0  0  0  0  0  0  0  0  0  0
    0.9924   -0.2574    2.1502 C   0  0  0  0  0  0  0  0  0  0  0  0
    1.7731    0.7438    1.5494 C   0  0  0  0  0  0  0  0  0  0  0  0
    2.3165    1.2326    0.1472 C   0  0  0  0  0  0  0  0  0  0  0  0
    3.4466    0.9727   -0.6129 C   0  0  0  0  0  0  0  0  0  0  0  0
    3.6661    1.1352   -2.1024 C   0  0  0  0  0  0  0  0  0  0  0  0
    3.6284    2.2857   -2.8725 C   0  0  0  0  0  0  0  0  0  0  0  0
    5.0049    2.6166   -3.2319 C   0  0  0  0  0  0  0  0  0  0  0  0
    5.6401    3.0533   -2.1381 C   0  0  0  0  0  0  0  0  0  0  0  0
    6.2965    2.1819   -1.1052 C   0  0  0  0  0  0  0  0  0  0  0  0
    5.9364    1.1078   -0.2714 C   0  0  0  0  0  0  0  0  0  0  0  0
    4.6002    0.2853   -0.0654 C   0  0  0  0  0  0  0  0  0  0  0  0
   -2.0200    0.9371   -0.5740 H   0  0  0  0  0  0  0  0  0  0  0  0
   -2.8259    0.6207    0.9513 H   0  0  0  0  0  0  0  0  0  0  0  0
   -3.2284   -0.3654   -0.4680 H   0  0  0  0  0  0  0  0  0  0  0  0
   -0.4703   -0.3300   -1.2275 H   0  0  0  0  0  0  0  0  0  0  0  0
    0.7351   -0.8713   -2.7383 H   0  0  0  0  0  0  0  0  0  0  0  0
    2.4710   -0.9512   -2.5850 H   0  0  0  0  0  0  0  0  0  0  0  0
    1.4547    0.4768   -2.0909 H   0  0  0  0  0  0  0  0  0  0  0  0
    3.5809   -3.3893    1.2277 H   0  0  0  0  0  0  0  0  0  0  0  0
    1.9470   -3.5726    1.3053 H   0  0  0  0  0  0  0  0  0  0  0  0
    3.6727   -1.7234    3.1964 H   0  0  0  0  0  0  0  0  0  0  0  0
    3.3579   -3.4163    3.4591 H   0  0  0  0  0  0  0  0  0  0  0  0
    2.1245   -0.9337    4.4417 H   0  0  0  0  0  0  0  0  0  0  0  0
    2.7212   -2.2992    5.2439 H   0  0  0  0  0  0  0  0  0  0  0  0
   -0.0510   -1.9042    4.2176 H   0  0  0  0  0  0  0  0  0  0  0  0
    0.4543   -2.0044    5.7946 H   0  0  0  0  0  0  0  0  0  0  0  0
    0.5835   -4.3709    3.8400 H   0  0  0  0  0  0  0  0  0  0  0  0
   -0.8002   -3.9317    4.8498 H   0  0  0  0  0  0  0  0  0  0  0  0
    0.5603   -4.2953    6.9198 H   0  0  0  0  0  0  0  0  0  0  0  0
    1.8884   -4.8794    5.9119 H   0  0  0  0  0  0  0  0  0  0  0  0
    0.3071   -6.5751    4.8897 H   0  0  0  0  0  0  0  0  0  0  0  0
   -0.9792   -5.9934    5.9319 H   0  0  0  0  0  0  0  0  0  0  0  0
    1.5751   -7.3641    6.8900 H   0  0  0  0  0  0  0  0  0  0  0  0
   -0.0248   -8.0896    6.7543 H   0  0  0  0  0  0  0  0  0  0  0  0
    0.2472   -6.8062    7.9292 H   0  0  0  0  0  0  0  0  0  0  0  0
    7.0831   -1.8769    0.7130 H   0  0  0  0  0  0  0  0  0  0  0  0
    7.0709   -2.6540    2.3098 H   0  0  0  0  0  0  0  0  0  0  0  0
    7.0791   -0.8765    2.1881 H   0  0  0  0  0  0  0  0  0  0  0  0
   -0.7610   -3.4714    1.5865 H   0  0  0  0  0  0  0  0  0  0  0  0
    0.7976   -2.2655    1.1265 H   0  0  0  0  0  0  0  0  0  0  0  0
    0.8090   -0.0375    3.2083 H   0  0  0  0  0  0  0  0  0  0  0  0
    2.1589    1.4859    2.2525 H   0  0  0  0  0  0  0  0  0  0  0  0
    1.5873    1.8882   -0.3265 H   0  0  0  0  0  0  0  0  0  0  0  0
    4.3807    0.4015   -2.4427 H   0  0  0  0  0  0  0  0  0  0  0  0
    2.9579    3.0975   -2.6577 H   0  0  0  0  0  0  0  0  0  0  0  0
    5.4708    1.8226   -3.8571 H   0  0  0  0  0  0  0  0  0  0  0  0
    5.1877    3.9740   -1.7055 H   0  0  0  0  0  0  0  0  0  0  0  0
    7.2959    2.6042   -1.0038 H   0  0  0  0  0  0  0  0  0  0  0  0
    6.7463    0.7978    0.3455 H   0  0  0  0  0  0  0  0  0  0  0  0
  1  2  1  0  0  0  0
  1 32  1  0  0  0  0
  1 33  1  0  0  0  0
  1 34  1  0  0  0  0
  2  3  1  0  0  0  0
  2 18  1  0  0  0  0
  3  4  2  0  0  0  0
  3 35  1  0  0  0  0
  4  5  1  0  0  0  0
  4  6  1  0  0  0  0
  5 36  1  0  0  0  0
  5 37  1  0  0  0  0
  5 38  1  0  0  0  0
  6  7  1  0  0  0  0
  6 15  1  0  0  0  0
  7  8  1  0  0  0  0
  7 39  1  0  0  0  0
  7 40  1  0  0  0  0
  8  9  1  0  0  0  0
  8 41  1  0  0  0  0
  8 42  1  0  0  0  0
  9 10  1  0  0  0  0
  9 43  1  0  0  0  0
  9 44  1  0  0  0  0
 10 11  1  0  0  0  0
 10 45  1  0  0  0  0
 10 46  1  0  0  0  0
 11 12  1  0  0  0  0
 11 47  1  0  0  0  0
 11 48  1  0  0  0  0
 12 13  1  0  0  0  0
 12 49  1  0  0  0  0
 12 50  1  0  0  0  0
 13 14  1  0  0  0  0
 13 51  1  0  0  0  0
 13 52  1  0  0  0  0
 14 53  1  0  0  0  0
 14 54  1  0  0  0  0
 14 55  1  0  0  0  0
 15 16  1  0  0  0  0
 15 31  2  0  0  0  0
 16 17  1  0  0  0  0
 16 18  2  0  0  0  0
 17 56  1  0  0  0  0
 17 57  1  0  0  0  0
 17 58  1  0  0  0  0
 18 19  1  0  0  0  0
 19 20  2  0  0  0  0
 19 59  1  0  0  0  0
 20 21  1  0  0  0  0
 20 60  1  0  0  0  0
 21 22  2  0  0  0  0
 21 61  1  0  0  0  0
 22 23  1  0  0  0  0
 22 62  1  0  0  0  0
 23 24  2  0  0  0  0
 23 63  1  0  0  0  0
 24 25  1  0  0  0  0
 24 31  1  0  0  0  0
 25 26  2  0  0  0  0
 25 64  1  0  0  0  0
 26 27  1  0  0  0  0
 26 65  1  0  0  0  0
 27 28  2  0  0  0  0
 27 66  1  0  0  0  0
 28 29  1  0  0  0  0
 28 67  1  0  0  0  0
 29 30  2  0  0  0  0
 29 68  1  0  0  0  0
 30 31  1  0  0  0  0
 30 69  1  0  0  0  0
M  END
$$$$
