
 OpenBabel04232216493D

 30 30  0  0  0  0  0  0  0  0999 V2000
    4.1204   -0.7624    0.4200 C   0  0  0  0  0  0  0  0  0  0  0  0
    4.9319   -0.7653    1.7060 C   0  0  0  0  0  0  0  0  0  0  0  0
    4.2799   -0.3819    2.8193 C   0  0  0  0  0  0  0  0  0  0  0  0
    4.9458    0.2027    3.9664 C   0  0  0  0  0  0  0  0  0  0  0  0
    5.0225    1.5465    3.8452 C   0  0  0  0  0  0  0  0  0  0  0  0
    6.1668    2.1249    3.0323 C   0  0  0  0  0  0  0  0  0  0  0  0
    7.3105    2.6135    3.8804 C   0  0  0  0  0  0  0  0  0  0  0  0
    8.6204    1.9068    3.4571 C   0  0  0  0  0  0  0  0  0  0  0  0
    8.7434    0.5297    4.1009 C   0  0  0  0  0  0  0  0  0  0  0  0
    8.3856   -0.7652    3.3362 C   0  0  0  0  0  0  0  0  0  0  0  0
    7.5791   -1.0552    2.0702 C   0  0  0  0  0  0  0  0  0  0  0  0
    6.3548   -1.0849    1.4961 C   0  0  0  0  0  0  0  0  0  0  0  0
    3.0626   -0.5070    0.5718 H   0  0  0  0  0  0  0  0  0  0  0  0
    4.1514   -1.7318   -0.0869 H   0  0  0  0  0  0  0  0  0  0  0  0
    4.5274   -0.0061   -0.2779 H   0  0  0  0  0  0  0  0  0  0  0  0
    3.2053   -0.1800    2.7764 H   0  0  0  0  0  0  0  0  0  0  0  0
    5.8381   -0.3710    4.2102 H   0  0  0  0  0  0  0  0  0  0  0  0
    4.0982    2.0875    3.6186 H   0  0  0  0  0  0  0  0  0  0  0  0
    5.7792    2.9458    2.4126 H   0  0  0  0  0  0  0  0  0  0  0  0
    6.5186    1.4042    2.2869 H   0  0  0  0  0  0  0  0  0  0  0  0
    7.1320    2.4330    4.9434 H   0  0  0  0  0  0  0  0  0  0  0  0
    7.4217    3.6917    3.7529 H   0  0  0  0  0  0  0  0  0  0  0  0
    9.4339    2.5374    3.8501 H   0  0  0  0  0  0  0  0  0  0  0  0
    8.7541    1.8719    2.3773 H   0  0  0  0  0  0  0  0  0  0  0  0
    8.2436    0.5166    5.0774 H   0  0  0  0  0  0  0  0  0  0  0  0
    9.8103    0.4312    4.3675 H   0  0  0  0  0  0  0  0  0  0  0  0
    9.3925   -1.0816    3.0058 H   0  0  0  0  0  0  0  0  0  0  0  0
    8.1433   -1.5363    4.0792 H   0  0  0  0  0  0  0  0  0  0  0  0
    8.2953   -1.5353    1.3855 H   0  0  0  0  0  0  0  0  0  0  0  0
    6.4278   -1.5331    0.4935 H   0  0  0  0  0  0  0  0  0  0  0  0
  1  2  1  0  0  0  0
  1 13  1  0  0  0  0
  1 14  1  0  0  0  0
  1 15  1  0  0  0  0
  2  3  2  3  0  0  0
  2 12  1  0  0  0  0
  3  4  1  0  0  0  0
  3 16  1  0  0  0  0
  4  5  2  3  0  0  0
  4 17  1  0  0  0  0
  5  6  1  0  0  0  0
  5 18  1  0  0  0  0
  6  7  1  0  0  0  0
  6 19  1  0  0  0  0
  6 20  1  0  0  0  0
  7  8  1  0  0  0  0
  7 21  1  0  0  0  0
  7 22  1  0  0  0  0
  8  9  1  0  0  0  0
  8 23  1  0  0  0  0
  8 24  1  0  0  0  0
  9 10  1  0  0  0  0
  9 25  1  0  0  0  0
  9 26  1  0  0  0  0
 10 11  1  0  0  0  0
 10 27  1  0  0  0  0
 10 28  1  0  0  0  0
 11 12  2  3  0  0  0
 11 29  1  0  0  0  0
 12 30  1  0  0  0  0
M  END
$$$$
