
 OpenBabel04232217023D

 88 87  0  0  0  0  0  0  0  0999 V2000
    7.7329   -7.1819   10.0888 O   0  0  0  0  0  0  0  0  0  0  0  0
    7.2588   -7.4422    8.7440 O   0  0  0  0  0  0  0  0  0  0  0  0
    7.6738   -6.1673    7.7554 S   0  0  0  0  0  0  0  0  0  0  0  0
    9.5174   -6.3169    7.8203 C   0  0  0  0  0  0  0  0  0  0  0  0
   10.1022   -5.2666    6.9659 N   0  0  0  0  0  0  0  0  0  0  0  0
   11.5326   -5.2783    6.9862 N   0  0  0  0  0  0  0  0  0  0  0  0
   12.1588   -4.0647    5.9971 S   0  0  0  0  0  0  0  0  0  0  0  0
   11.6569   -2.5457    6.5192 N   0  0  0  0  0  0  0  0  0  0  0  0
   12.3196   -1.3775    5.5296 S   0  0  0  0  0  0  0  0  0  0  0  0
   11.6216    0.3833    6.3441 S   0  0  0  0  0  0  0  0  0  0  0  0
   12.3488    0.5809    8.2688 S   0  0  0  0  0  0  0  0  0  0  0  0
   14.4245    0.6494    8.2617 S   0  0  0  0  0  0  0  0  0  0  0  0
   15.0981    0.7992   10.2574 S   0  0  0  0  0  0  0  0  0  0  0  0
   17.2126    0.7996   10.2602 S   0  0  0  0  0  0  0  0  0  0  0  0
   17.9044    0.9732   12.2507 S   0  0  0  0  0  0  0  0  0  0  0  0
   20.0183    0.9723   12.2427 S   0  0  0  0  0  0  0  0  0  0  0  0
   20.7125    1.1449   14.2303 S   0  0  0  0  0  0  0  0  0  0  0  0
   22.8241    1.1439   14.2185 S   0  0  0  0  0  0  0  0  0  0  0  0
   23.5164    1.3165   16.2050 S   0  0  0  0  0  0  0  0  0  0  0  0
   25.6267    1.3154   16.1925 S   0  0  0  0  0  0  0  0  0  0  0  0
   26.3179    1.4879   18.1785 S   0  0  0  0  0  0  0  0  0  0  0  0
   28.4275    1.4868   18.1655 S   0  0  0  0  0  0  0  0  0  0  0  0
   29.1183    1.6593   20.1513 S   0  0  0  0  0  0  0  0  0  0  0  0
   31.2277    1.6581   20.1381 S   0  0  0  0  0  0  0  0  0  0  0  0
   31.9184    1.8306   22.1238 S   0  0  0  0  0  0  0  0  0  0  0  0
   34.0278    1.8294   22.1106 S   0  0  0  0  0  0  0  0  0  0  0  0
   34.7184    2.0019   24.0963 S   0  0  0  0  0  0  0  0  0  0  0  0
   36.8278    2.0008   24.0831 S   0  0  0  0  0  0  0  0  0  0  0  0
   37.5184    2.1733   26.0688 S   0  0  0  0  0  0  0  0  0  0  0  0
   39.6278    2.1721   26.0556 S   0  0  0  0  0  0  0  0  0  0  0  0
   40.3184    2.3446   28.0413 S   0  0  0  0  0  0  0  0  0  0  0  0
   42.4278    2.3435   28.0281 S   0  0  0  0  0  0  0  0  0  0  0  0
   43.1185    2.5159   30.0135 S   0  0  0  0  0  0  0  0  0  0  0  0
   45.2276    2.5148   30.0006 S   0  0  0  0  0  0  0  0  0  0  0  0
   45.9182    2.6874   31.9869 S   0  0  0  0  0  0  0  0  0  0  0  0
   48.0276    2.6860   31.9710 S   0  0  0  0  0  0  0  0  0  0  0  0
   48.7264    2.8582   33.9533 S   0  0  0  0  0  0  0  0  0  0  0  0
   50.8324    2.8569   33.9391 S   0  0  0  0  0  0  0  0  0  0  0  0
   51.5213    3.0292   35.9226 S   0  0  0  0  0  0  0  0  0  0  0  0
   53.6301    3.0288   35.9180 S   0  0  0  0  0  0  0  0  0  0  0  0
   54.3195    3.2014   37.9048 S   0  0  0  0  0  0  0  0  0  0  0  0
   56.4294    3.2002   37.8912 S   0  0  0  0  0  0  0  0  0  0  0  0
   57.1213    3.3727   39.8765 S   0  0  0  0  0  0  0  0  0  0  0  0
   59.2343    3.3714   39.8614 S   0  0  0  0  0  0  0  0  0  0  0  0
   59.9223    3.5438   41.8466 S   0  0  0  0  0  0  0  0  0  0  0  0
   62.0352    3.5426   41.8328 S   0  0  0  0  0  0  0  0  0  0  0  0
   62.7217    3.7151   43.8185 S   0  0  0  0  0  0  0  0  0  0  0  0
   64.8318    3.7140   43.8062 S   0  0  0  0  0  0  0  0  0  0  0  0
   65.5193    3.8864   45.7907 S   0  0  0  0  0  0  0  0  0  0  0  0
   67.6284    3.8855   45.7802 S   0  0  0  0  0  0  0  0  0  0  0  0
   68.3186    4.0580   47.7658 S   0  0  0  0  0  0  0  0  0  0  0  0
   70.4283    4.0568   47.7522 S   0  0  0  0  0  0  0  0  0  0  0  0
   71.1195    4.2293   49.7383 S   0  0  0  0  0  0  0  0  0  0  0  0
   73.2291    4.2283   49.7264 S   0  0  0  0  0  0  0  0  0  0  0  0
   73.9200    4.4008   51.7117 S   0  0  0  0  0  0  0  0  0  0  0  0
   76.0295    4.3998   51.7011 S   0  0  0  0  0  0  0  0  0  0  0  0
   76.7205    4.5723   53.6864 S   0  0  0  0  0  0  0  0  0  0  0  0
   78.8302    4.5711   53.6726 S   0  0  0  0  0  0  0  0  0  0  0  0
   79.5225    4.7434   55.6567 S   0  0  0  0  0  0  0  0  0  0  0  0
   81.6331    4.7420   55.6397 S   0  0  0  0  0  0  0  0  0  0  0  0
   82.3239    4.9143   57.6240 S   0  0  0  0  0  0  0  0  0  0  0  0
   84.4332    4.9131   57.6101 S   0  0  0  0  0  0  0  0  0  0  0  0
   85.1209    5.0857   59.5968 S   0  0  0  0  0  0  0  0  0  0  0  0
   87.2301    5.0848   59.5864 S   0  0  0  0  0  0  0  0  0  0  0  0
   87.9172    5.2574   61.5736 S   0  0  0  0  0  0  0  0  0  0  0  0
   90.0268    5.2564   61.5623 S   0  0  0  0  0  0  0  0  0  0  0  0
   90.7169    5.4290   63.5485 S   0  0  0  0  0  0  0  0  0  0  0  0
   92.8264    5.4277   63.5341 S   0  0  0  0  0  0  0  0  0  0  0  0
   93.5184    5.6001   65.5189 S   0  0  0  0  0  0  0  0  0  0  0  0
   95.6273    5.5989   65.5043 S   0  0  0  0  0  0  0  0  0  0  0  0
   96.3176    5.7713   67.4891 S   0  0  0  0  0  0  0  0  0  0  0  0
   98.4252    5.7701   67.4752 S   0  0  0  0  0  0  0  0  0  0  0  0
   99.1125    5.9424   69.4593 S   0  0  0  0  0  0  0  0  0  0  0  0
  101.2173    5.9410   69.4427 S   0  0  0  0  0  0  0  0  0  0  0  0
  101.9008    6.1129   71.4234 S   0  0  0  0  0  0  0  0  0  0  0  0
  103.9992    6.1112   71.3992 S   0  0  0  0  0  0  0  0  0  0  0  0
  104.6715    6.2825   73.3735 S   0  0  0  0  0  0  0  0  0  0  0  0
  106.7539    6.2572   73.3373 S   0  0  0  0  0  0  0  0  0  0  0  0
  107.4120    6.4873   75.2912 S   0  0  0  0  0  0  0  0  0  0  0  0
  109.4814    6.4345   75.2434 S   0  0  0  0  0  0  0  0  0  0  0  0
  110.0605    8.0842   74.1648 S   0  0  0  0  0  0  0  0  0  0  0  0
    7.2457   -7.9730   10.5062 H   0  0  0  0  0  0  0  0  0  0  0  0
    9.7985   -7.3212    7.4816 H   0  0  0  0  0  0  0  0  0  0  0  0
    9.8212   -6.1983    8.8685 H   0  0  0  0  0  0  0  0  0  0  0  0
    9.7894   -4.3684    7.3375 H   0  0  0  0  0  0  0  0  0  0  0  0
   11.8633   -6.1868    6.6370 H   0  0  0  0  0  0  0  0  0  0  0  0
   12.0015   -2.3914    7.4655 H   0  0  0  0  0  0  0  0  0  0  0  0
  111.4001    7.9674   74.1991 H   0  0  0  0  0  0  0  0  0  0  0  0
  1  2  1  0  0  0  0
  1 82  1  0  0  0  0
  2  3  1  0  0  0  0
  3  4  1  0  0  0  0
  4  5  1  0  0  0  0
  4 83  1  0  0  0  0
  4 84  1  0  0  0  0
  5  6  1  0  0  0  0
  5 85  1  0  0  0  0
  6  7  1  0  0  0  0
  6 86  1  0  0  0  0
  7  8  1  0  0  0  0
  8  9  1  0  0  0  0
  8 87  1  0  0  0  0
  9 10  1  0  0  0  0
 10 11  1  0  0  0  0
 11 12  1  0  0  0  0
 12 13  1  0  0  0  0
 13 14  1  0  0  0  0
 14 15  1  0  0  0  0
 15 16  1  0  0  0  0
 16 17  1  0  0  0  0
 17 18  1  0  0  0  0
 18 19  1  0  0  0  0
 19 20  1  0  0  0  0
 20 21  1  0  0  0  0
 21 22  1  0  0  0  0
 22 23  1  0  0  0  0
 23 24  1  0  0  0  0
 24 25  1  0  0  0  0
 25 26  1  0  0  0  0
 26 27  1  0  0  0  0
 27 28  1  0  0  0  0
 28 29  1  0  0  0  0
 29 30  1  0  0  0  0
 30 31  1  0  0  0  0
 31 32  1  0  0  0  0
 32 33  1  0  0  0  0
 33 34  1  0  0  0  0
 34 35  1  0  0  0  0
 35 36  1  0  0  0  0
 36 37  1  0  0  0  0
 37 38  1  0  0  0  0
 38 39  1  0  0  0  0
 39 40  1  0  0  0  0
 40 41  1  0  0  0  0
 41 42  1  0  0  0  0
 42 43  1  0  0  0  0
 43 44  1  0  0  0  0
 44 45  1  0  0  0  0
 45 46  1  0  0  0  0
 46 47  1  0  0  0  0
 47 48  1  0  0  0  0
 48 49  1  0  0  0  0
 49 50  1  0  0  0  0
 50 51  1  0  0  0  0
 51 52  1  0  0  0  0
 52 53  1  0  0  0  0
 53 54  1  0  0  0  0
 54 55  1  0  0  0  0
 55 56  1  0  0  0  0
 56 57  1  0  0  0  0
 57 58  1  0  0  0  0
 58 59  1  0  0  0  0
 59 60  1  0  0  0  0
 60 61  1  0  0  0  0
 61 62  1  0  0  0  0
 62 63  1  0  0  0  0
 63 64  1  0  0  0  0
 64 65  1  0  0  0  0
 65 66  1  0  0  0  0
 66 67  1  0  0  0  0
 67 68  1  0  0  0  0
 68 69  1  0  0  0  0
 69 70  1  0  0  0  0
 70 71  1  0  0  0  0
 71 72  1  0  0  0  0
 72 73  1  0  0  0  0
 73 74  1  0  0  0  0
 74 75  1  0  0  0  0
 75 76  1  0  0  0  0
 76 77  1  0  0  0  0
 77 78  1  0  0  0  0
 78 79  1  0  0  0  0
 79 80  1  0  0  0  0
 80 81  1  0  0  0  0
 81 88  1  0  0  0  0
M  END
$$$$
