
 OpenBabel04232216543D

189188  0  0  0  0  0  0  0  0999 V2000
   30.8875  -33.1585  -19.8973 C   0  0  0  0  0  0  0  0  0  0  0  0
   30.4096  -31.9465  -20.6662 C   0  0  0  0  0  0  0  0  0  0  0  0
   30.9024  -30.6728  -19.9958 C   0  0  0  0  0  0  0  0  0  0  0  0
   30.4229  -29.4554  -20.7646 C   0  0  0  0  0  0  0  0  0  0  0  0
   30.9001  -28.2421  -20.1109 N   0  0  0  0  0  0  0  0  0  0  0  0
   30.4353  -27.0787  -20.8578 C   0  0  0  0  0  0  0  0  0  0  0  0
   30.9265  -25.8102  -20.1851 C   0  0  0  0  0  0  0  0  0  0  0  0
   30.4444  -24.5911  -20.9532 C   0  0  0  0  0  0  0  0  0  0  0  0
   30.9347  -23.3228  -20.2825 C   0  0  0  0  0  0  0  0  0  0  0  0
   30.4548  -22.1077  -21.0508 C   0  0  0  0  0  0  0  0  0  0  0  0
   30.9442  -20.8413  -20.3780 C   0  0  0  0  0  0  0  0  0  0  0  0
   30.4660  -19.6269  -21.1473 C   0  0  0  0  0  0  0  0  0  0  0  0
   30.9569  -18.3610  -20.4756 C   0  0  0  0  0  0  0  0  0  0  0  0
   30.4771  -17.1467  -21.2438 C   0  0  0  0  0  0  0  0  0  0  0  0
   30.9681  -15.8807  -20.5721 C   0  0  0  0  0  0  0  0  0  0  0  0
   30.4899  -14.6665  -21.3414 C   0  0  0  0  0  0  0  0  0  0  0  0
   30.9792  -13.4005  -20.6686 C   0  0  0  0  0  0  0  0  0  0  0  0
   30.4994  -12.1861  -21.4368 C   0  0  0  0  0  0  0  0  0  0  0  0
   30.9903  -10.9201  -20.7650 C   0  0  0  0  0  0  0  0  0  0  0  0
   30.5122   -9.7055  -21.5343 C   0  0  0  0  0  0  0  0  0  0  0  0
   31.0049   -8.4391  -20.8637 C   0  0  0  0  0  0  0  0  0  0  0  0
   30.5291   -7.2236  -21.6334 C   0  0  0  0  0  0  0  0  0  0  0  0
   31.0232   -5.9549  -20.9640 C   0  0  0  0  0  0  0  0  0  0  0  0
   30.5365   -4.7471  -21.7380 C   0  0  0  0  0  0  0  0  0  0  0  0
   30.9652   -3.5460  -21.0507 N   0  0  0  0  0  0  0  0  0  0  0  0
   30.5244   -2.3657  -21.8050 C   0  0  0  0  0  0  0  0  0  0  0  0
   31.0302   -1.1281  -21.1570 N   0  0  0  0  0  0  0  0  0  0  0  0
   30.5817    0.0347  -21.9065 C   0  0  0  0  0  0  0  0  0  0  0  0
   31.0240    1.3024  -21.2786 N   0  0  0  0  0  0  0  0  0  0  0  0
   32.4457    1.3268  -21.2359 N   0  0  0  0  0  0  0  0  0  0  0  0
   32.9920    1.2237  -22.5696 N   0  0  0  0  0  0  0  0  0  0  0  0
   34.3986    1.1894  -22.5630 N   0  0  0  0  0  0  0  0  0  0  0  0
   34.8815    0.0606  -21.8576 N   0  0  0  0  0  0  0  0  0  0  0  0
   34.4205   -1.1360  -22.4774 N   0  0  0  0  0  0  0  0  0  0  0  0
   34.8805   -1.1743  -23.8257 N   0  0  0  0  0  0  0  0  0  0  0  0
   36.2985   -1.1471  -23.8097 N   0  0  0  0  0  0  0  0  0  0  0  0
   36.7761   -2.2766  -23.0706 N   0  0  0  0  0  0  0  0  0  0  0  0
   36.3329   -3.5045  -23.6717 N   0  0  0  0  0  0  0  0  0  0  0  0
   36.7635   -3.6015  -25.0291 N   0  0  0  0  0  0  0  0  0  0  0  0
   38.1924   -3.5999  -25.0856 N   0  0  0  0  0  0  0  0  0  0  0  0
   38.7131   -4.6871  -24.3377 N   0  0  0  0  0  0  0  0  0  0  0  0
   38.2195   -5.8931  -24.8920 N   0  0  0  0  0  0  0  0  0  0  0  0
   38.6439   -5.9889  -26.2558 N   0  0  0  0  0  0  0  0  0  0  0  0
   40.0699   -5.9410  -26.3046 N   0  0  0  0  0  0  0  0  0  0  0  0
   40.6048   -7.0334  -25.5552 N   0  0  0  0  0  0  0  0  0  0  0  0
   40.1106   -8.2537  -26.1033 N   0  0  0  0  0  0  0  0  0  0  0  0
   40.5076   -8.3561  -27.4785 N   0  0  0  0  0  0  0  0  0  0  0  0
   41.9342   -8.3057  -27.5363 N   0  0  0  0  0  0  0  0  0  0  0  0
   42.5205   -9.4227  -26.8138 N   0  0  0  0  0  0  0  0  0  0  0  0
   42.0206  -10.6623  -27.3136 N   0  0  0  0  0  0  0  0  0  0  0  0
   42.4211  -10.7871  -28.6976 N   0  0  0  0  0  0  0  0  0  0  0  0
   43.8601  -10.7041  -28.8016 N   0  0  0  0  0  0  0  0  0  0  0  0
   44.4398  -11.7915  -28.0348 N   0  0  0  0  0  0  0  0  0  0  0  0
   43.9506  -13.0527  -28.5363 N   0  0  0  0  0  0  0  0  0  0  0  0
   44.3178  -13.1910  -29.9423 N   0  0  0  0  0  0  0  0  0  0  0  0
   45.7473  -13.0824  -30.0432 N   0  0  0  0  0  0  0  0  0  0  0  0
   46.3377  -14.1561  -29.2619 N   0  0  0  0  0  0  0  0  0  0  0  0
   45.8397  -15.4132  -29.7560 N   0  0  0  0  0  0  0  0  0  0  0  0
   46.1998  -15.5928  -31.1478 N   0  0  0  0  0  0  0  0  0  0  0  0
   47.6255  -15.5409  -31.2923 N   0  0  0  0  0  0  0  0  0  0  0  0
   48.2428  -16.5737  -30.5089 N   0  0  0  0  0  0  0  0  0  0  0  0
   47.7735  -17.8490  -30.9790 N   0  0  0  0  0  0  0  0  0  0  0  0
   48.0838  -17.9911  -32.3679 N   0  0  0  0  0  0  0  0  0  0  0  0
   49.5167  -17.9441  -32.5477 N   0  0  0  0  0  0  0  0  0  0  0  0
   50.1400  -18.9495  -31.7549 N   0  0  0  0  0  0  0  0  0  0  0  0
   49.6720  -20.2329  -32.1866 N   0  0  0  0  0  0  0  0  0  0  0  0
   49.9619  -20.3943  -33.5769 N   0  0  0  0  0  0  0  0  0  0  0  0
   51.3895  -20.3097  -33.7777 N   0  0  0  0  0  0  0  0  0  0  0  0
   52.0501  -21.3233  -32.9931 N   0  0  0  0  0  0  0  0  0  0  0  0
   51.5695  -22.6095  -33.3882 N   0  0  0  0  0  0  0  0  0  0  0  0
   51.8631  -22.8066  -34.7877 N   0  0  0  0  0  0  0  0  0  0  0  0
   53.2720  -22.6603  -34.9944 N   0  0  0  0  0  0  0  0  0  0  0  0
   53.9499  -23.6636  -34.1966 N   0  0  0  0  0  0  0  0  0  0  0  0
   53.4890  -24.9830  -34.5974 N   0  0  0  0  0  0  0  0  0  0  0  0
   53.7679  -25.2004  -35.9897 N   0  0  0  0  0  0  0  0  0  0  0  0
   55.1906  -25.1053  -36.2466 N   0  0  0  0  0  0  0  0  0  0  0  0
   55.8752  -26.0619  -35.4469 N   0  0  0  0  0  0  0  0  0  0  0  0
   55.4254  -27.3852  -35.7981 N   0  0  0  0  0  0  0  0  0  0  0  0
   55.6763  -27.6046  -37.2050 N   0  0  0  0  0  0  0  0  0  0  0  0
   57.0960  -27.4776  -37.4966 N   0  0  0  0  0  0  0  0  0  0  0  0
   57.8459  -28.4496  -36.7195 N   0  0  0  0  0  0  0  0  0  0  0  0
   30.5344  -34.0743  -20.3776 H   0  0  0  0  0  0  0  0  0  0  0  0
   30.5071  -33.1315  -18.8716 H   0  0  0  0  0  0  0  0  0  0  0  0
   31.9812  -33.1795  -19.8636 H   0  0  0  0  0  0  0  0  0  0  0  0
   29.3147  -31.9473  -20.7044 H   0  0  0  0  0  0  0  0  0  0  0  0
   30.7853  -31.9952  -21.6942 H   0  0  0  0  0  0  0  0  0  0  0  0
   31.9982  -30.6836  -19.9581 H   0  0  0  0  0  0  0  0  0  0  0  0
   30.5278  -30.6359  -18.9659 H   0  0  0  0  0  0  0  0  0  0  0  0
   29.3273  -29.4599  -20.7967 H   0  0  0  0  0  0  0  0  0  0  0  0
   30.8001  -29.5062  -21.7924 H   0  0  0  0  0  0  0  0  0  0  0  0
   31.9203  -28.2461  -20.0850 H   0  0  0  0  0  0  0  0  0  0  0  0
   29.3398  -27.0660  -20.8920 H   0  0  0  0  0  0  0  0  0  0  0  0
   30.8137  -27.1118  -21.8861 H   0  0  0  0  0  0  0  0  0  0  0  0
   32.0222  -25.8056  -20.1487 H   0  0  0  0  0  0  0  0  0  0  0  0
   30.5514  -25.7627  -19.1561 H   0  0  0  0  0  0  0  0  0  0  0  0
   29.3488  -24.5858  -20.9918 H   0  0  0  0  0  0  0  0  0  0  0  0
   30.8179  -24.6296  -21.9832 H   0  0  0  0  0  0  0  0  0  0  0  0
   32.0301  -23.3251  -20.2435 H   0  0  0  0  0  0  0  0  0  0  0  0
   30.5595  -23.2800  -19.2536 H   0  0  0  0  0  0  0  0  0  0  0  0
   29.3595  -22.1046  -21.0912 H   0  0  0  0  0  0  0  0  0  0  0  0
   30.8313  -22.1483  -22.0795 H   0  0  0  0  0  0  0  0  0  0  0  0
   32.0395  -20.8445  -20.3364 H   0  0  0  0  0  0  0  0  0  0  0  0
   30.5666  -20.7995  -19.3499 H   0  0  0  0  0  0  0  0  0  0  0  0
   29.3706  -19.6229  -21.1878 H   0  0  0  0  0  0  0  0  0  0  0  0
   30.8424  -19.6693  -22.1759 H   0  0  0  0  0  0  0  0  0  0  0  0
   32.0524  -18.3644  -20.4364 H   0  0  0  0  0  0  0  0  0  0  0  0
   30.5817  -18.3192  -19.4466 H   0  0  0  0  0  0  0  0  0  0  0  0
   29.3817  -17.1432  -21.2830 H   0  0  0  0  0  0  0  0  0  0  0  0
   30.8524  -17.1884  -22.2729 H   0  0  0  0  0  0  0  0  0  0  0  0
   32.0635  -15.8847  -20.5316 H   0  0  0  0  0  0  0  0  0  0  0  0
   30.5917  -15.8384  -19.5435 H   0  0  0  0  0  0  0  0  0  0  0  0
   29.3946  -14.6632  -21.3831 H   0  0  0  0  0  0  0  0  0  0  0  0
   30.8675  -14.7082  -22.3696 H   0  0  0  0  0  0  0  0  0  0  0  0
   32.0746  -13.4032  -20.6282 H   0  0  0  0  0  0  0  0  0  0  0  0
   30.6028  -13.3594  -19.6399 H   0  0  0  0  0  0  0  0  0  0  0  0
   29.4040  -12.1828  -21.4759 H   0  0  0  0  0  0  0  0  0  0  0  0
   30.8746  -12.2279  -22.4658 H   0  0  0  0  0  0  0  0  0  0  0  0
   32.0857  -10.9243  -20.7246 H   0  0  0  0  0  0  0  0  0  0  0  0
   30.6140  -10.8778  -19.7364 H   0  0  0  0  0  0  0  0  0  0  0  0
   29.4168   -9.7010  -21.5736 H   0  0  0  0  0  0  0  0  0  0  0  0
   30.8874   -9.7490  -22.5633 H   0  0  0  0  0  0  0  0  0  0  0  0
   32.1002   -8.4454  -20.8232 H   0  0  0  0  0  0  0  0  0  0  0  0
   30.6284   -8.3960  -19.8352 H   0  0  0  0  0  0  0  0  0  0  0  0
   29.4334   -7.2188  -21.6731 H   0  0  0  0  0  0  0  0  0  0  0  0
   30.9037   -7.2695  -22.6626 H   0  0  0  0  0  0  0  0  0  0  0  0
   32.1194   -5.9647  -20.9263 H   0  0  0  0  0  0  0  0  0  0  0  0
   30.6487   -5.9150  -19.9340 H   0  0  0  0  0  0  0  0  0  0  0  0
   29.4453   -4.7453  -21.7697 H   0  0  0  0  0  0  0  0  0  0  0  0
   30.9227   -4.7869  -22.7635 H   0  0  0  0  0  0  0  0  0  0  0  0
   31.9902   -3.5434  -21.0442 H   0  0  0  0  0  0  0  0  0  0  0  0
   29.4416   -2.3425  -21.8519 H   0  0  0  0  0  0  0  0  0  0  0  0
   30.9316   -2.3955  -22.8341 H   0  0  0  0  0  0  0  0  0  0  0  0
   32.0335   -1.1663  -21.1321 H   0  0  0  0  0  0  0  0  0  0  0  0
   29.4867    0.0646  -21.9420 H   0  0  0  0  0  0  0  0  0  0  0  0
   30.9237   -0.0020  -22.9499 H   0  0  0  0  0  0  0  0  0  0  0  0
   30.7207    1.2974  -20.3126 H   0  0  0  0  0  0  0  0  0  0  0  0
   32.7416    0.5057  -20.6991 H   0  0  0  0  0  0  0  0  0  0  0  0
   32.6190    2.0194  -23.1091 H   0  0  0  0  0  0  0  0  0  0  0  0
   34.7700    2.0428  -22.1419 H   0  0  0  0  0  0  0  0  0  0  0  0
   34.6029    0.1415  -20.8764 H   0  0  0  0  0  0  0  0  0  0  0  0
   33.4031   -1.0953  -22.5108 H   0  0  0  0  0  0  0  0  0  0  0  0
   34.5720   -0.3541  -24.3357 H   0  0  0  0  0  0  0  0  0  0  0  0
   36.6086   -0.2842  -23.3574 H   0  0  0  0  0  0  0  0  0  0  0  0
   36.4307   -2.2485  -22.1167 H   0  0  0  0  0  0  0  0  0  0  0  0
   35.3238   -3.5489  -23.6926 H   0  0  0  0  0  0  0  0  0  0  0  0
   36.3692   -2.8028  -25.5474 H   0  0  0  0  0  0  0  0  0  0  0  0
   38.5327   -2.7473  -24.6536 H   0  0  0  0  0  0  0  0  0  0  0  0
   38.3680   -4.6255  -23.3862 H   0  0  0  0  0  0  0  0  0  0  0  0
   37.1989   -5.8476  -24.8636 H   0  0  0  0  0  0  0  0  0  0  0  0
   38.2493   -5.1574  -26.7249 H   0  0  0  0  0  0  0  0  0  0  0  0
   40.3779   -5.0752  -25.8610 H   0  0  0  0  0  0  0  0  0  0  0  0
   40.2933   -6.9706  -24.5931 H   0  0  0  0  0  0  0  0  0  0  0  0
   39.0908   -8.2486  -26.0512 H   0  0  0  0  0  0  0  0  0  0  0  0
   40.1214   -7.5468  -27.9835 H   0  0  0  0  0  0  0  0  0  0  0  0
   42.2861   -7.4403  -27.1340 H   0  0  0  0  0  0  0  0  0  0  0  0
   42.2328   -9.3524  -25.8408 H   0  0  0  0  0  0  0  0  0  0  0  0
   40.9994  -10.6792  -27.2262 H   0  0  0  0  0  0  0  0  0  0  0  0
   42.0030   -9.9998  -29.2132 H   0  0  0  0  0  0  0  0  0  0  0  0
   44.1991   -9.8151  -28.4152 H   0  0  0  0  0  0  0  0  0  0  0  0
   44.1543  -11.6671  -27.0460 H   0  0  0  0  0  0  0  0  0  0  0  0
   42.9388  -13.0940  -28.4819 H   0  0  0  0  0  0  0  0  0  0  0  0
   43.8805  -12.4061  -30.4461 H   0  0  0  0  0  0  0  0  0  0  0  0
   46.0548  -12.1752  -29.6722 H   0  0  0  0  0  0  0  0  0  0  0  0
   46.0611  -14.0555  -28.2744 H   0  0  0  0  0  0  0  0  0  0  0  0
   44.8182  -15.4481  -29.6875 H   0  0  0  0  0  0  0  0  0  0  0  0
   45.7844  -14.8498  -31.7070 H   0  0  0  0  0  0  0  0  0  0  0  0
   47.9773  -14.6578  -30.9405 H   0  0  0  0  0  0  0  0  0  0  0  0
   47.9602  -16.4307  -29.5308 H   0  0  0  0  0  0  0  0  0  0  0  0
   46.7482  -17.8726  -30.8576 H   0  0  0  0  0  0  0  0  0  0  0  0
   47.6308  -17.2281  -32.8988 H   0  0  0  0  0  0  0  0  0  0  0  0
   49.8554  -17.0389  -32.2141 H   0  0  0  0  0  0  0  0  0  0  0  0
   49.8940  -18.7843  -30.7687 H   0  0  0  0  0  0  0  0  0  0  0  0
   48.6519  -20.2579  -32.0647 H   0  0  0  0  0  0  0  0  0  0  0  0
   49.5442  -19.6374  -34.1059 H   0  0  0  0  0  0  0  0  0  0  0  0
   51.6761  -19.3976  -33.4279 H   0  0  0  0  0  0  0  0  0  0  0  0
   51.7970  -21.1412  -32.0064 H   0  0  0  0  0  0  0  0  0  0  0  0
   50.5490  -22.6483  -33.2338 H   0  0  0  0  0  0  0  0  0  0  0  0
   51.3612  -22.0715  -35.3151 H   0  0  0  0  0  0  0  0  0  0  0  0
   53.5609  -21.7246  -34.6850 H   0  0  0  0  0  0  0  0  0  0  0  0
   53.7035  -23.5019  -33.2075 H   0  0  0  0  0  0  0  0  0  0  0  0
   52.4639  -25.0414  -34.4234 H   0  0  0  0  0  0  0  0  0  0  0  0
   53.2757  -24.5101  -36.5644 H   0  0  0  0  0  0  0  0  0  0  0  0
   55.5084  -24.1779  -35.9625 H   0  0  0  0  0  0  0  0  0  0  0  0
   55.6569  -25.9005  -34.4711 H   0  0  0  0  0  0  0  0  0  0  0  0
   54.4094  -27.4138  -35.6111 H   0  0  0  0  0  0  0  0  0  0  0  0
   55.1463  -26.8752  -37.7261 H   0  0  0  0  0  0  0  0  0  0  0  0
   57.3836  -26.5176  -37.2353 H   0  0  0  0  0  0  0  0  0  0  0  0
   57.4609  -29.3685  -36.9366 H   0  0  0  0  0  0  0  0  0  0  0  0
   57.6152  -28.2907  -35.7284 H   0  0  0  0  0  0  0  0  0  0  0  0
  1  2  1  0  0  0  0
  1 82  1  0  0  0  0
  1 83  1  0  0  0  0
  1 84  1  0  0  0  0
  2  3  1  0  0  0  0
  2 85  1  0  0  0  0
  2 86  1  0  0  0  0
  3  4  1  0  0  0  0
  3 87  1  0  0  0  0
  3 88  1  0  0  0  0
  4  5  1  0  0  0  0
  4 89  1  0  0  0  0
  4 90  1  0  0  0  0
  5  6  1  0  0  0  0
  5 91  1  0  0  0  0
  6  7  1  0  0  0  0
  6 92  1  0  0  0  0
  6 93  1  0  0  0  0
  7  8  1  0  0  0  0
  7 94  1  0  0  0  0
  7 95  1  0  0  0  0
  8  9  1  0  0  0  0
  8 96  1  0  0  0  0
  8 97  1  0  0  0  0
  9 10  1  0  0  0  0
  9 98  1  0  0  0  0
  9 99  1  0  0  0  0
 10 11  1  0  0  0  0
 10100  1  0  0  0  0
 10101  1  0  0  0  0
 11 12  1  0  0  0  0
 11102  1  0  0  0  0
 11103  1  0  0  0  0
 12 13  1  0  0  0  0
 12104  1  0  0  0  0
 12105  1  0  0  0  0
 13 14  1  0  0  0  0
 13106  1  0  0  0  0
 13107  1  0  0  0  0
 14 15  1  0  0  0  0
 14108  1  0  0  0  0
 14109  1  0  0  0  0
 15 16  1  0  0  0  0
 15110  1  0  0  0  0
 15111  1  0  0  0  0
 16 17  1  0  0  0  0
 16112  1  0  0  0  0
 16113  1  0  0  0  0
 17 18  1  0  0  0  0
 17114  1  0  0  0  0
 17115  1  0  0  0  0
 18 19  1  0  0  0  0
 18116  1  0  0  0  0
 18117  1  0  0  0  0
 19 20  1  0  0  0  0
 19118  1  0  0  0  0
 19119  1  0  0  0  0
 20 21  1  0  0  0  0
 20120  1  0  0  0  0
 20121  1  0  0  0  0
 21 22  1  0  0  0  0
 21122  1  0  0  0  0
 21123  1  0  0  0  0
 22 23  1  0  0  0  0
 22124  1  0  0  0  0
 22125  1  0  0  0  0
 23 24  1  0  0  0  0
 23126  1  0  0  0  0
 23127  1  0  0  0  0
 24 25  1  0  0  0  0
 24128  1  0  0  0  0
 24129  1  0  0  0  0
 25 26  1  0  0  0  0
 25130  1  0  0  0  0
 26 27  1  0  0  0  0
 26131  1  0  0  0  0
 26132  1  0  0  0  0
 27 28  1  0  0  0  0
 27133  1  0  0  0  0
 28 29  1  0  0  0  0
 28134  1  0  0  0  0
 28135  1  0  0  0  0
 29 30  1  0  0  0  0
 29136  1  0  0  0  0
 30 31  1  0  0  0  0
 30137  1  0  0  0  0
 31 32  1  0  0  0  0
 31138  1  0  0  0  0
 32 33  1  0  0  0  0
 32139  1  0  0  0  0
 33 34  1  0  0  0  0
 33140  1  0  0  0  0
 34 35  1  0  0  0  0
 34141  1  0  0  0  0
 35 36  1  0  0  0  0
 35142  1  0  0  0  0
 36 37  1  0  0  0  0
 36143  1  0  0  0  0
 37 38  1  0  0  0  0
 37144  1  0  0  0  0
 38 39  1  0  0  0  0
 38145  1  0  0  0  0
 39 40  1  0  0  0  0
 39146  1  0  0  0  0
 40 41  1  0  0  0  0
 40147  1  0  0  0  0
 41 42  1  0  0  0  0
 41148  1  0  0  0  0
 42 43  1  0  0  0  0
 42149  1  0  0  0  0
 43 44  1  0  0  0  0
 43150  1  0  0  0  0
 44 45  1  0  0  0  0
 44151  1  0  0  0  0
 45 46  1  0  0  0  0
 45152  1  0  0  0  0
 46 47  1  0  0  0  0
 46153  1  0  0  0  0
 47 48  1  0  0  0  0
 47154  1  0  0  0  0
 48 49  1  0  0  0  0
 48155  1  0  0  0  0
 49 50  1  0  0  0  0
 49156  1  0  0  0  0
 50 51  1  0  0  0  0
 50157  1  0  0  0  0
 51 52  1  0  0  0  0
 51158  1  0  0  0  0
 52 53  1  0  0  0  0
 52159  1  0  0  0  0
 53 54  1  0  0  0  0
 53160  1  0  0  0  0
 54 55  1  0  0  0  0
 54161  1  0  0  0  0
 55 56  1  0  0  0  0
 55162  1  0  0  0  0
 56 57  1  0  0  0  0
 56163  1  0  0  0  0
 57 58  1  0  0  0  0
 57164  1  0  0  0  0
 58 59  1  0  0  0  0
 58165  1  0  0  0  0
 59 60  1  0  0  0  0
 59166  1  0  0  0  0
 60 61  1  0  0  0  0
 60167  1  0  0  0  0
 61 62  1  0  0  0  0
 61168  1  0  0  0  0
 62 63  1  0  0  0  0
 62169  1  0  0  0  0
 63 64  1  0  0  0  0
 63170  1  0  0  0  0
 64 65  1  0  0  0  0
 64171  1  0  0  0  0
 65 66  1  0  0  0  0
 65172  1  0  0  0  0
 66 67  1  0  0  0  0
 66173  1  0  0  0  0
 67 68  1  0  0  0  0
 67174  1  0  0  0  0
 68 69  1  0  0  0  0
 68175  1  0  0  0  0
 69 70  1  0  0  0  0
 69176  1  0  0  0  0
 70 71  1  0  0  0  0
 70177  1  0  0  0  0
 71 72  1  0  0  0  0
 71178  1  0  0  0  0
 72 73  1  0  0  0  0
 72179  1  0  0  0  0
 73 74  1  0  0  0  0
 73180  1  0  0  0  0
 74 75  1  0  0  0  0
 74181  1  0  0  0  0
 75 76  1  0  0  0  0
 75182  1  0  0  0  0
 76 77  1  0  0  0  0
 76183  1  0  0  0  0
 77 78  1  0  0  0  0
 77184  1  0  0  0  0
 78 79  1  0  0  0  0
 78185  1  0  0  0  0
 79 80  1  0  0  0  0
 79186  1  0  0  0  0
 80 81  1  0  0  0  0
 80187  1  0  0  0  0
 81188  1  0  0  0  0
 81189  1  0  0  0  0
M  END
$$$$
