
 OpenBabel04232216473D

 44 45  0  0  0  0  0  0  0  0999 V2000
   14.6826   12.8944    7.8028 C   0  0  0  0  0  0  0  0  0  0  0  0
   15.7374   11.8488    7.1115 C   0  0  0  0  0  0  0  0  0  0  0  0
   16.7828   12.6519    6.7951 C   0  0  0  0  0  0  0  0  0  0  0  0
   16.4805   13.7624    5.8102 C   0  0  0  0  0  0  0  0  0  0  0  0
   17.4616   14.0063    4.9280 C   0  0  0  0  0  0  0  0  0  0  0  0
   18.7755   14.5330    5.4303 C   0  0  0  0  0  0  0  0  0  0  0  0
   17.2660   13.3862    3.7068 N   0  0  0  0  0  0  0  0  0  0  0  0
   17.3694   12.0657    3.7383 C   0  0  0  0  0  0  0  0  0  0  0  0
   18.4078   11.3503    4.6334 C   0  0  0  0  0  0  0  0  0  0  0  0
   16.2152   11.2692    3.1619 C   0  0  0  0  0  0  0  0  0  0  0  0
   16.2866   10.0139    2.6763 C   0  0  0  0  0  0  0  0  0  0  0  0
   15.1641    8.9854    2.7264 C   0  0  0  0  0  0  0  0  0  0  0  0
   14.1336    9.1220    3.5819 N   0  0  0  0  0  0  0  0  0  0  0  0
   14.3066    9.0136    4.8760 C   0  0  0  0  0  0  0  0  0  0  0  0
   15.5944    9.2996    5.5583 C   0  0  0  0  0  0  0  0  0  0  0  0
   16.6469    8.1174    5.0896 C   0  0  0  0  0  0  0  0  0  0  0  0
   16.5359    7.0265    4.1758 C   0  0  0  0  0  0  0  0  0  0  0  0
   17.6972    6.0543    3.7700 C   0  0  0  0  0  0  0  0  0  0  0  0
   15.4532    6.7831    3.2094 N   0  0  0  0  0  0  0  0  0  0  0  0
   15.2706    5.4412    2.4877 C   0  0  0  0  0  0  0  0  0  0  0  0
   15.4170    7.7941    2.2465 N   0  0  0  0  0  0  0  0  0  0  0  0
   15.3033   10.5416    6.2471 C   0  0  0  0  0  0  0  0  0  0  0  0
   15.1817   13.8763    8.0291 H   0  0  0  0  0  0  0  0  0  0  0  0
   14.3178   12.6222    8.7936 H   0  0  0  0  0  0  0  0  0  0  0  0
   13.8678   13.2307    7.1417 H   0  0  0  0  0  0  0  0  0  0  0  0
   17.1813   13.2729    7.6281 H   0  0  0  0  0  0  0  0  0  0  0  0
   15.4695   13.7032    5.3923 H   0  0  0  0  0  0  0  0  0  0  0  0
   18.6202   15.5367    5.8542 H   0  0  0  0  0  0  0  0  0  0  0  0
   19.5403   14.5985    4.6596 H   0  0  0  0  0  0  0  0  0  0  0  0
   19.1584   13.9330    6.2640 H   0  0  0  0  0  0  0  0  0  0  0  0
   18.9220   12.0132    5.3323 H   0  0  0  0  0  0  0  0  0  0  0  0
   19.1887   10.9279    4.0034 H   0  0  0  0  0  0  0  0  0  0  0  0
   17.9711   10.5706    5.2549 H   0  0  0  0  0  0  0  0  0  0  0  0
   15.2464   11.6897    3.3831 H   0  0  0  0  0  0  0  0  0  0  0  0
   17.2506    9.5543    2.4975 H   0  0  0  0  0  0  0  0  0  0  0  0
   13.4883    8.7073    5.5140 H   0  0  0  0  0  0  0  0  0  0  0  0
   17.6418    8.2518    5.5008 H   0  0  0  0  0  0  0  0  0  0  0  0
   18.6947    6.3903    4.0450 H   0  0  0  0  0  0  0  0  0  0  0  0
   17.7428    5.9366    2.6715 H   0  0  0  0  0  0  0  0  0  0  0  0
   17.5336    5.0366    4.1497 H   0  0  0  0  0  0  0  0  0  0  0  0
   14.2115    5.2473    2.2574 H   0  0  0  0  0  0  0  0  0  0  0  0
   15.6182    4.5701    3.0598 H   0  0  0  0  0  0  0  0  0  0  0  0
   15.7993    5.4130    1.5177 H   0  0  0  0  0  0  0  0  0  0  0  0
   14.2272   10.8005    6.1511 H   0  0  0  0  0  0  0  0  0  0  0  0
  1  2  1  0  0  0  0
  1 23  1  0  0  0  0
  1 24  1  0  0  0  0
  1 25  1  0  0  0  0
  2  3  2  3  0  0  0
  2 22  1  0  0  0  0
  3  4  1  0  0  0  0
  3 26  1  0  0  0  0
  4  5  2  3  0  0  0
  4 27  1  0  0  0  0
  5  6  1  0  0  0  0
  5  7  1  0  0  0  0
  6 28  1  0  0  0  0
  6 29  1  0  0  0  0
  6 30  1  0  0  0  0
  7  8  2  3  0  0  0
  8  9  1  0  0  0  0
  8 10  1  0  0  0  0
  9 31  1  0  0  0  0
  9 32  1  0  0  0  0
  9 33  1  0  0  0  0
 10 11  2  3  0  0  0
 10 34  1  0  0  0  0
 11 12  1  0  0  0  0
 11 35  1  0  0  0  0
 12 13  1  0  0  0  0
 12 21  2  0  0  0  0
 13 14  2  0  0  0  0
 14 15  1  0  0  0  0
 14 36  1  0  0  0  0
 15 16  1  0  0  0  0
 15 22  2  3  0  0  0
 16 17  2  0  0  0  0
 16 37  1  0  0  0  0
 17 18  1  0  0  0  0
 17 19  1  0  0  0  0
 18 38  1  0  0  0  0
 18 39  1  0  0  0  0
 18 40  1  0  0  0  0
 19 20  1  0  0  0  0
 19 21  1  0  0  0  0
 20 41  1  0  0  0  0
 20 42  1  0  0  0  0
 20 43  1  0  0  0  0
 22 44  1  0  0  0  0
M  END
$$$$
