
 OpenBabel04232216543D

200199  0  0  0  0  0  0  0  0999 V2000
    0.7055   22.4267  -31.8153 C   0  0  0  0  0  0  0  0  0  0  0  0
    2.2152   22.4476  -31.8295 C   0  0  0  0  0  0  0  0  0  0  0  0
    2.7552   22.3230  -30.4159 C   0  0  0  0  0  0  0  0  0  0  0  0
    4.2708   22.3415  -30.4248 C   0  0  0  0  0  0  0  0  0  0  0  0
    4.7764   22.2220  -29.0627 N   0  0  0  0  0  0  0  0  0  0  0  0
    6.2338   22.2402  -29.0840 C   0  0  0  0  0  0  0  0  0  0  0  0
    6.7717   22.1138  -27.6724 C   0  0  0  0  0  0  0  0  0  0  0  0
    8.2887   22.1303  -27.6819 C   0  0  0  0  0  0  0  0  0  0  0  0
    8.8258   22.0040  -26.2719 C   0  0  0  0  0  0  0  0  0  0  0  0
   10.3391   22.0187  -26.2832 C   0  0  0  0  0  0  0  0  0  0  0  0
   10.8744   21.8943  -24.8735 C   0  0  0  0  0  0  0  0  0  0  0  0
   12.3872   21.9110  -24.8848 C   0  0  0  0  0  0  0  0  0  0  0  0
   12.9223   21.7887  -23.4749 C   0  0  0  0  0  0  0  0  0  0  0  0
   14.4351   21.8074  -23.4861 C   0  0  0  0  0  0  0  0  0  0  0  0
   14.9703   21.6851  -22.0762 C   0  0  0  0  0  0  0  0  0  0  0  0
   16.4831   21.7017  -22.0876 C   0  0  0  0  0  0  0  0  0  0  0  0
   17.0182   21.5774  -20.6779 C   0  0  0  0  0  0  0  0  0  0  0  0
   18.5310   21.5961  -20.6890 C   0  0  0  0  0  0  0  0  0  0  0  0
   19.0662   21.4698  -19.2795 C   0  0  0  0  0  0  0  0  0  0  0  0
   20.5790   21.4865  -19.2909 C   0  0  0  0  0  0  0  0  0  0  0  0
   21.1142   21.3582  -17.8816 C   0  0  0  0  0  0  0  0  0  0  0  0
   22.6270   21.3768  -17.8928 C   0  0  0  0  0  0  0  0  0  0  0  0
   23.1621   21.2505  -16.4833 C   0  0  0  0  0  0  0  0  0  0  0  0
   24.6750   21.2672  -16.4946 C   0  0  0  0  0  0  0  0  0  0  0  0
   25.2101   21.1409  -15.0851 C   0  0  0  0  0  0  0  0  0  0  0  0
   26.7229   21.1595  -15.0963 C   0  0  0  0  0  0  0  0  0  0  0  0
   27.2581   21.0332  -13.6867 C   0  0  0  0  0  0  0  0  0  0  0  0
   28.7711   21.0519  -13.6978 C   0  0  0  0  0  0  0  0  0  0  0  0
   29.3068   20.9256  -12.2879 C   0  0  0  0  0  0  0  0  0  0  0  0
   30.8211   20.9441  -12.2972 C   0  0  0  0  0  0  0  0  0  0  0  0
   31.3610   20.8175  -10.8840 C   0  0  0  0  0  0  0  0  0  0  0  0
   32.8804   20.8372  -10.8908 C   0  0  0  0  0  0  0  0  0  0  0  0
   33.3850   20.7128   -9.5263 N   0  0  0  0  0  0  0  0  0  0  0  0
   34.8528   20.7318   -9.5362 C   0  0  0  0  0  0  0  0  0  0  0  0
   35.3483   21.9762  -10.1024 N   0  0  0  0  0  0  0  0  0  0  0  0
   36.8123   21.9879  -10.1085 C   0  0  0  0  0  0  0  0  0  0  0  0
   37.2937   23.2264  -10.6778 N   0  0  0  0  0  0  0  0  0  0  0  0
   38.7626   23.2399  -10.6782 C   0  0  0  0  0  0  0  0  0  0  0  0
   39.2538   24.4958  -11.2513 N   0  0  0  0  0  0  0  0  0  0  0  0
   40.7184   24.4917  -11.2517 C   0  0  0  0  0  0  0  0  0  0  0  0
   41.2107   25.7365  -11.8302 N   0  0  0  0  0  0  0  0  0  0  0  0
   42.6707   25.7542  -11.8308 C   0  0  0  0  0  0  0  0  0  0  0  0
   43.1523   26.9907  -12.3983 N   0  0  0  0  0  0  0  0  0  0  0  0
   42.6551   28.0880  -11.6062 N   0  0  0  0  0  0  0  0  0  0  0  0
   43.0937   29.3150  -12.1487 N   0  0  0  0  0  0  0  0  0  0  0  0
   42.6336   29.4799  -13.5051 N   0  0  0  0  0  0  0  0  0  0  0  0
   43.0881   30.7037  -14.0510 N   0  0  0  0  0  0  0  0  0  0  0  0
   44.4988   30.7482  -14.0745 N   0  0  0  0  0  0  0  0  0  0  0  0
   44.9281   31.9641  -14.6151 N   0  0  0  0  0  0  0  0  0  0  0  0
   46.3379   31.9975  -14.6190 N   0  0  0  0  0  0  0  0  0  0  0  0
   46.7908   33.2235  -15.1704 N   0  0  0  0  0  0  0  0  0  0  0  0
   48.2137   33.2722  -15.1836 N   0  0  0  0  0  0  0  0  0  0  0  0
   48.6561   34.5031  -15.7316 N   0  0  0  0  0  0  0  0  0  0  0  0
   50.0546   34.5389  -15.7296 N   0  0  0  0  0  0  0  0  0  0  0  0
   50.4997   35.7596  -16.2840 N   0  0  0  0  0  0  0  0  0  0  0  0
   51.9379   35.8188  -16.2988 N   0  0  0  0  0  0  0  0  0  0  0  0
   52.4856   34.7641  -17.0830 N   0  0  0  0  0  0  0  0  0  0  0  0
   53.8768   34.8446  -17.0760 N   0  0  0  0  0  0  0  0  0  0  0  0
   54.4031   33.7866  -17.8526 N   0  0  0  0  0  0  0  0  0  0  0  0
   55.8192   33.8469  -17.8654 N   0  0  0  0  0  0  0  0  0  0  0  0
   56.3407   32.7972  -18.6389 N   0  0  0  0  0  0  0  0  0  0  0  0
   57.7595   32.8649  -18.6443 N   0  0  0  0  0  0  0  0  0  0  0  0
   58.2915   31.8095  -19.4198 N   0  0  0  0  0  0  0  0  0  0  0  0
   59.7161   31.8775  -19.4246 N   0  0  0  0  0  0  0  0  0  0  0  0
   60.2496   30.8211  -20.2091 N   0  0  0  0  0  0  0  0  0  0  0  0
   59.7828   30.9112  -21.5447 N   0  0  0  0  0  0  0  0  0  0  0  0
   60.3265   29.8577  -22.3061 N   0  0  0  0  0  0  0  0  0  0  0  0
   59.8594   29.9470  -23.6361 N   0  0  0  0  0  0  0  0  0  0  0  0
   60.3990   28.8908  -24.4181 N   0  0  0  0  0  0  0  0  0  0  0  0
   59.9329   28.9895  -25.7393 N   0  0  0  0  0  0  0  0  0  0  0  0
   60.4735   27.9275  -26.5306 N   0  0  0  0  0  0  0  0  0  0  0  0
   60.0087   28.0264  -27.8535 N   0  0  0  0  0  0  0  0  0  0  0  0
   60.5489   26.9658  -28.6321 N   0  0  0  0  0  0  0  0  0  0  0  0
   60.0865   27.0593  -29.9651 N   0  0  0  0  0  0  0  0  0  0  0  0
   60.6275   25.9995  -30.7436 N   0  0  0  0  0  0  0  0  0  0  0  0
   60.1670   26.0925  -32.0809 N   0  0  0  0  0  0  0  0  0  0  0  0
   60.7068   25.0359  -32.8473 N   0  0  0  0  0  0  0  0  0  0  0  0
   60.2451   25.1270  -34.1871 N   0  0  0  0  0  0  0  0  0  0  0  0
   60.7819   24.0742  -34.9623 N   0  0  0  0  0  0  0  0  0  0  0  0
   60.3179   24.1732  -36.2810 N   0  0  0  0  0  0  0  0  0  0  0  0
   60.8528   23.1210  -37.0449 N   0  0  0  0  0  0  0  0  0  0  0  0
    0.3161   22.5162  -32.8313 H   0  0  0  0  0  0  0  0  0  0  0  0
    0.3222   23.2582  -31.2181 H   0  0  0  0  0  0  0  0  0  0  0  0
    0.3452   21.4897  -31.3828 H   0  0  0  0  0  0  0  0  0  0  0  0
    2.5618   23.3839  -32.2764 H   0  0  0  0  0  0  0  0  0  0  0  0
    2.5847   21.6191  -32.4407 H   0  0  0  0  0  0  0  0  0  0  0  0
    2.3977   21.3871  -29.9746 H   0  0  0  0  0  0  0  0  0  0  0  0
    2.3773   23.1532  -29.8105 H   0  0  0  0  0  0  0  0  0  0  0  0
    4.6135   23.2799  -30.8723 H   0  0  0  0  0  0  0  0  0  0  0  0
    4.6355   21.5114  -31.0382 H   0  0  0  0  0  0  0  0  0  0  0  0
    4.4525   21.3454  -28.6546 H   0  0  0  0  0  0  0  0  0  0  0  0
    6.5920   23.1784  -29.5198 H   0  0  0  0  0  0  0  0  0  0  0  0
    6.6140   21.4102  -29.6881 H   0  0  0  0  0  0  0  0  0  0  0  0
    6.4242   21.1773  -27.2249 H   0  0  0  0  0  0  0  0  0  0  0  0
    6.4053   22.9435  -27.0597 H   0  0  0  0  0  0  0  0  0  0  0  0
    8.6443   23.0657  -28.1257 H   0  0  0  0  0  0  0  0  0  0  0  0
    8.6625   21.3009  -28.2907 H   0  0  0  0  0  0  0  0  0  0  0  0
    8.4716   21.0692  -25.8266 H   0  0  0  0  0  0  0  0  0  0  0  0
    8.4557   22.8342  -25.6624 H   0  0  0  0  0  0  0  0  0  0  0  0
   10.6940   22.9529  -26.7295 H   0  0  0  0  0  0  0  0  0  0  0  0
   10.7099   21.1875  -26.8912 H   0  0  0  0  0  0  0  0  0  0  0  0
   10.5208   20.9594  -24.4275 H   0  0  0  0  0  0  0  0  0  0  0  0
   10.5026   22.7247  -24.2650 H   0  0  0  0  0  0  0  0  0  0  0  0
   12.7408   22.8453  -25.3320 H   0  0  0  0  0  0  0  0  0  0  0  0
   12.7591   21.0798  -25.4921 H   0  0  0  0  0  0  0  0  0  0  0  0
   12.5699   20.8537  -23.0282 H   0  0  0  0  0  0  0  0  0  0  0  0
   12.5494   22.6191  -22.8673 H   0  0  0  0  0  0  0  0  0  0  0  0
   14.7876   22.7423  -23.9328 H   0  0  0  0  0  0  0  0  0  0  0  0
   14.8081   20.9770  -24.0937 H   0  0  0  0  0  0  0  0  0  0  0  0
   14.6167   20.7508  -21.6290 H   0  0  0  0  0  0  0  0  0  0  0  0
   14.5984   22.5162  -21.4689 H   0  0  0  0  0  0  0  0  0  0  0  0
   16.8367   22.6366  -22.5335 H   0  0  0  0  0  0  0  0  0  0  0  0
   16.8549   20.8714  -22.6960 H   0  0  0  0  0  0  0  0  0  0  0  0
   16.6658   20.6418  -20.2325 H   0  0  0  0  0  0  0  0  0  0  0  0
   16.6453   22.4069  -20.0690 H   0  0  0  0  0  0  0  0  0  0  0  0
   18.8834   22.5323  -21.1331 H   0  0  0  0  0  0  0  0  0  0  0  0
   18.9040   20.7674  -21.2990 H   0  0  0  0  0  0  0  0  0  0  0  0
   18.7126   20.5343  -18.8350 H   0  0  0  0  0  0  0  0  0  0  0  0
   18.6944   22.2992  -18.6699 H   0  0  0  0  0  0  0  0  0  0  0  0
   20.9326   22.4226  -19.7342 H   0  0  0  0  0  0  0  0  0  0  0  0
   20.9508   20.6579  -19.9017 H   0  0  0  0  0  0  0  0  0  0  0  0
   20.7618   20.4213  -17.4389 H   0  0  0  0  0  0  0  0  0  0  0  0
   20.7412   22.1860  -17.2704 H   0  0  0  0  0  0  0  0  0  0  0  0
   22.9794   22.3130  -18.3368 H   0  0  0  0  0  0  0  0  0  0  0  0
   22.9999   20.5482  -18.5028 H   0  0  0  0  0  0  0  0  0  0  0  0
   22.8086   20.3150  -16.0387 H   0  0  0  0  0  0  0  0  0  0  0  0
   22.7903   22.0800  -15.8736 H   0  0  0  0  0  0  0  0  0  0  0  0
   25.0285   22.2027  -16.9392 H   0  0  0  0  0  0  0  0  0  0  0  0
   25.0467   20.4377  -17.1042 H   0  0  0  0  0  0  0  0  0  0  0  0
   24.8577   20.2047  -14.6411 H   0  0  0  0  0  0  0  0  0  0  0  0
   24.8372   21.9696  -14.4751 H   0  0  0  0  0  0  0  0  0  0  0  0
   27.0753   22.0958  -15.5403 H   0  0  0  0  0  0  0  0  0  0  0  0
   27.0959   20.3309  -15.7063 H   0  0  0  0  0  0  0  0  0  0  0  0
   26.9057   20.0970  -13.2427 H   0  0  0  0  0  0  0  0  0  0  0  0
   26.8851   21.8619  -13.0768 H   0  0  0  0  0  0  0  0  0  0  0  0
   29.1233   21.9881  -14.1420 H   0  0  0  0  0  0  0  0  0  0  0  0
   29.1438   20.2233  -14.3079 H   0  0  0  0  0  0  0  0  0  0  0  0
   28.9537   19.9894  -11.8443 H   0  0  0  0  0  0  0  0  0  0  0  0
   28.9332   21.7542  -11.6784 H   0  0  0  0  0  0  0  0  0  0  0  0
   31.1716   21.8803  -12.7431 H   0  0  0  0  0  0  0  0  0  0  0  0
   31.1921   20.1157  -12.9090 H   0  0  0  0  0  0  0  0  0  0  0  0
   31.0016   19.8811  -10.4453 H   0  0  0  0  0  0  0  0  0  0  0  0
   30.9816   21.6470  -10.2787 H   0  0  0  0  0  0  0  0  0  0  0  0
   33.2152   21.7744  -11.3418 H   0  0  0  0  0  0  0  0  0  0  0  0
   33.2402   20.0066  -11.5076 H   0  0  0  0  0  0  0  0  0  0  0  0
   33.0538   19.8348   -9.1274 H   0  0  0  0  0  0  0  0  0  0  0  0
   35.2136   19.8766  -10.1198 H   0  0  0  0  0  0  0  0  0  0  0  0
   35.2127   20.6111   -8.5060 H   0  0  0  0  0  0  0  0  0  0  0  0
   35.0014   22.7547   -9.5439 H   0  0  0  0  0  0  0  0  0  0  0  0
   37.1714   21.1393  -10.7022 H   0  0  0  0  0  0  0  0  0  0  0  0
   37.1768   21.8682   -9.0826 H   0  0  0  0  0  0  0  0  0  0  0  0
   36.9519   24.0016  -10.1143 H   0  0  0  0  0  0  0  0  0  0  0  0
   39.1323   22.3927  -11.2669 H   0  0  0  0  0  0  0  0  0  0  0  0
   39.1346   23.1394   -9.6526 H   0  0  0  0  0  0  0  0  0  0  0  0
   38.9108   25.2777  -10.7013 H   0  0  0  0  0  0  0  0  0  0  0  0
   41.0954   23.6543  -11.8462 H   0  0  0  0  0  0  0  0  0  0  0  0
   41.0896   24.3942  -10.2281 H   0  0  0  0  0  0  0  0  0  0  0  0
   40.8910   26.5335  -11.2776 H   0  0  0  0  0  0  0  0  0  0  0  0
   43.0518   24.9193  -12.4306 H   0  0  0  0  0  0  0  0  0  0  0  0
   43.0597   25.6451  -10.8108 H   0  0  0  0  0  0  0  0  0  0  0  0
   42.7897   27.1429  -13.3484 H   0  0  0  0  0  0  0  0  0  0  0  0
   43.0006   28.0010  -10.6497 H   0  0  0  0  0  0  0  0  0  0  0  0
   44.1244   29.3411  -12.1476 H   0  0  0  0  0  0  0  0  0  0  0  0
   41.6118   29.4635  -13.5277 H   0  0  0  0  0  0  0  0  0  0  0  0
   42.7088   31.4804  -13.5012 H   0  0  0  0  0  0  0  0  0  0  0  0
   44.8613   29.9765  -14.6353 H   0  0  0  0  0  0  0  0  0  0  0  0
   44.5543   32.7239  -14.0459 H   0  0  0  0  0  0  0  0  0  0  0  0
   46.6888   31.2114  -15.1796 H   0  0  0  0  0  0  0  0  0  0  0  0
   46.4545   34.0176  -14.6211 H   0  0  0  0  0  0  0  0  0  0  0  0
   48.5702   32.4924  -15.7383 H   0  0  0  0  0  0  0  0  0  0  0  0
   48.3219   35.2909  -15.1747 H   0  0  0  0  0  0  0  0  0  0  0  0
   50.4245   33.7761  -16.3003 H   0  0  0  0  0  0  0  0  0  0  0  0
   50.1220   36.5350  -15.7276 H   0  0  0  0  0  0  0  0  0  0  0  0
   52.2740   35.7568  -15.3323 H   0  0  0  0  0  0  0  0  0  0  0  0
   52.1378   34.8386  -18.0392 H   0  0  0  0  0  0  0  0  0  0  0  0
   54.2215   34.7663  -16.1180 H   0  0  0  0  0  0  0  0  0  0  0  0
   54.0703   33.8545  -18.8192 H   0  0  0  0  0  0  0  0  0  0  0  0
   56.1865   33.7633  -16.9215 H   0  0  0  0  0  0  0  0  0  0  0  0
   55.9774   32.8798  -19.5901 H   0  0  0  0  0  0  0  0  0  0  0  0
   58.0861   32.8137  -17.6732 H   0  0  0  0  0  0  0  0  0  0  0  0
   57.9434   31.8820  -20.3826 H   0  0  0  0  0  0  0  0  0  0  0  0
   60.0920   31.7795  -18.4861 H   0  0  0  0  0  0  0  0  0  0  0  0
   59.9617   29.9205  -19.8301 H   0  0  0  0  0  0  0  0  0  0  0  0
   60.0704   31.8190  -21.9162 H   0  0  0  0  0  0  0  0  0  0  0  0
   60.0333   28.9524  -21.9304 H   0  0  0  0  0  0  0  0  0  0  0  0
   60.1524   30.8310  -24.0537 H   0  0  0  0  0  0  0  0  0  0  0  0
   60.1098   27.9934  -24.0339 H   0  0  0  0  0  0  0  0  0  0  0  0
   60.2287   29.8686  -26.1583 H   0  0  0  0  0  0  0  0  0  0  0  0
   60.1876   27.0488  -26.0985 H   0  0  0  0  0  0  0  0  0  0  0  0
   60.2951   28.9360  -28.2306 H   0  0  0  0  0  0  0  0  0  0  0  0
   60.2711   26.0666  -28.2254 H   0  0  0  0  0  0  0  0  0  0  0  0
   60.3719   27.9551  -30.3704 H   0  0  0  0  0  0  0  0  0  0  0  0
   60.3454   25.1038  -30.3355 H   0  0  0  0  0  0  0  0  0  0  0  0
   60.4434   26.9975  -32.4766 H   0  0  0  0  0  0  0  0  0  0  0  0
   60.4235   24.1298  -32.4592 H   0  0  0  0  0  0  0  0  0  0  0  0
   60.5408   26.0074  -34.6151 H   0  0  0  0  0  0  0  0  0  0  0  0
   60.4871   23.1720  -34.5970 H   0  0  0  0  0  0  0  0  0  0  0  0
   60.6079   25.0565  -36.6957 H   0  0  0  0  0  0  0  0  0  0  0  0
   60.5787   22.2154  -36.6687 H   0  0  0  0  0  0  0  0  0  0  0  0
   61.8722   23.1601  -37.0475 H   0  0  0  0  0  0  0  0  0  0  0  0
  1  2  1  0  0  0  0
  1 82  1  0  0  0  0
  1 83  1  0  0  0  0
  1 84  1  0  0  0  0
  2  3  1  0  0  0  0
  2 85  1  0  0  0  0
  2 86  1  0  0  0  0
  3  4  1  0  0  0  0
  3 87  1  0  0  0  0
  3 88  1  0  0  0  0
  4  5  1  0  0  0  0
  4 89  1  0  0  0  0
  4 90  1  0  0  0  0
  5  6  1  0  0  0  0
  5 91  1  0  0  0  0
  6  7  1  0  0  0  0
  6 92  1  0  0  0  0
  6 93  1  0  0  0  0
  7  8  1  0  0  0  0
  7 94  1  0  0  0  0
  7 95  1  0  0  0  0
  8  9  1  0  0  0  0
  8 96  1  0  0  0  0
  8 97  1  0  0  0  0
  9 10  1  0  0  0  0
  9 98  1  0  0  0  0
  9 99  1  0  0  0  0
 10 11  1  0  0  0  0
 10100  1  0  0  0  0
 10101  1  0  0  0  0
 11 12  1  0  0  0  0
 11102  1  0  0  0  0
 11103  1  0  0  0  0
 12 13  1  0  0  0  0
 12104  1  0  0  0  0
 12105  1  0  0  0  0
 13 14  1  0  0  0  0
 13106  1  0  0  0  0
 13107  1  0  0  0  0
 14 15  1  0  0  0  0
 14108  1  0  0  0  0
 14109  1  0  0  0  0
 15 16  1  0  0  0  0
 15110  1  0  0  0  0
 15111  1  0  0  0  0
 16 17  1  0  0  0  0
 16112  1  0  0  0  0
 16113  1  0  0  0  0
 17 18  1  0  0  0  0
 17114  1  0  0  0  0
 17115  1  0  0  0  0
 18 19  1  0  0  0  0
 18116  1  0  0  0  0
 18117  1  0  0  0  0
 19 20  1  0  0  0  0
 19118  1  0  0  0  0
 19119  1  0  0  0  0
 20 21  1  0  0  0  0
 20120  1  0  0  0  0
 20121  1  0  0  0  0
 21 22  1  0  0  0  0
 21122  1  0  0  0  0
 21123  1  0  0  0  0
 22 23  1  0  0  0  0
 22124  1  0  0  0  0
 22125  1  0  0  0  0
 23 24  1  0  0  0  0
 23126  1  0  0  0  0
 23127  1  0  0  0  0
 24 25  1  0  0  0  0
 24128  1  0  0  0  0
 24129  1  0  0  0  0
 25 26  1  0  0  0  0
 25130  1  0  0  0  0
 25131  1  0  0  0  0
 26 27  1  0  0  0  0
 26132  1  0  0  0  0
 26133  1  0  0  0  0
 27 28  1  0  0  0  0
 27134  1  0  0  0  0
 27135  1  0  0  0  0
 28 29  1  0  0  0  0
 28136  1  0  0  0  0
 28137  1  0  0  0  0
 29 30  1  0  0  0  0
 29138  1  0  0  0  0
 29139  1  0  0  0  0
 30 31  1  0  0  0  0
 30140  1  0  0  0  0
 30141  1  0  0  0  0
 31 32  1  0  0  0  0
 31142  1  0  0  0  0
 31143  1  0  0  0  0
 32 33  1  0  0  0  0
 32144  1  0  0  0  0
 32145  1  0  0  0  0
 33 34  1  0  0  0  0
 33146  1  0  0  0  0
 34 35  1  0  0  0  0
 34147  1  0  0  0  0
 34148  1  0  0  0  0
 35 36  1  0  0  0  0
 35149  1  0  0  0  0
 36 37  1  0  0  0  0
 36150  1  0  0  0  0
 36151  1  0  0  0  0
 37 38  1  0  0  0  0
 37152  1  0  0  0  0
 38 39  1  0  0  0  0
 38153  1  0  0  0  0
 38154  1  0  0  0  0
 39 40  1  0  0  0  0
 39155  1  0  0  0  0
 40 41  1  0  0  0  0
 40156  1  0  0  0  0
 40157  1  0  0  0  0
 41 42  1  0  0  0  0
 41158  1  0  0  0  0
 42 43  1  0  0  0  0
 42159  1  0  0  0  0
 42160  1  0  0  0  0
 43 44  1  0  0  0  0
 43161  1  0  0  0  0
 44 45  1  0  0  0  0
 44162  1  0  0  0  0
 45 46  1  0  0  0  0
 45163  1  0  0  0  0
 46 47  1  0  0  0  0
 46164  1  0  0  0  0
 47 48  1  0  0  0  0
 47165  1  0  0  0  0
 48 49  1  0  0  0  0
 48166  1  0  0  0  0
 49 50  1  0  0  0  0
 49167  1  0  0  0  0
 50 51  1  0  0  0  0
 50168  1  0  0  0  0
 51 52  1  0  0  0  0
 51169  1  0  0  0  0
 52 53  1  0  0  0  0
 52170  1  0  0  0  0
 53 54  1  0  0  0  0
 53171  1  0  0  0  0
 54 55  1  0  0  0  0
 54172  1  0  0  0  0
 55 56  1  0  0  0  0
 55173  1  0  0  0  0
 56 57  1  0  0  0  0
 56174  1  0  0  0  0
 57 58  1  0  0  0  0
 57175  1  0  0  0  0
 58 59  1  0  0  0  0
 58176  1  0  0  0  0
 59 60  1  0  0  0  0
 59177  1  0  0  0  0
 60 61  1  0  0  0  0
 60178  1  0  0  0  0
 61 62  1  0  0  0  0
 61179  1  0  0  0  0
 62 63  1  0  0  0  0
 62180  1  0  0  0  0
 63 64  1  0  0  0  0
 63181  1  0  0  0  0
 64 65  1  0  0  0  0
 64182  1  0  0  0  0
 65 66  1  0  0  0  0
 65183  1  0  0  0  0
 66 67  1  0  0  0  0
 66184  1  0  0  0  0
 67 68  1  0  0  0  0
 67185  1  0  0  0  0
 68 69  1  0  0  0  0
 68186  1  0  0  0  0
 69 70  1  0  0  0  0
 69187  1  0  0  0  0
 70 71  1  0  0  0  0
 70188  1  0  0  0  0
 71 72  1  0  0  0  0
 71189  1  0  0  0  0
 72 73  1  0  0  0  0
 72190  1  0  0  0  0
 73 74  1  0  0  0  0
 73191  1  0  0  0  0
 74 75  1  0  0  0  0
 74192  1  0  0  0  0
 75 76  1  0  0  0  0
 75193  1  0  0  0  0
 76 77  1  0  0  0  0
 76194  1  0  0  0  0
 77 78  1  0  0  0  0
 77195  1  0  0  0  0
 78 79  1  0  0  0  0
 78196  1  0  0  0  0
 79 80  1  0  0  0  0
 79197  1  0  0  0  0
 80 81  1  0  0  0  0
 80198  1  0  0  0  0
 81199  1  0  0  0  0
 81200  1  0  0  0  0
M  END
$$$$
