
 OpenBabel04232216423D

 16 16  0  0  0  0  0  0  0  0999 V2000
    0.6463    1.2654    0.0036 C   0  0  0  0  0  0  0  0  0  0  0  0
    1.4595    0.1441   -0.0098 C   0  0  0  0  0  0  0  0  0  0  0  0
    0.8756   -1.1226   -0.0079 C   0  0  0  0  0  0  0  0  0  0  0  0
   -0.5079   -1.2449    0.0119 C   0  0  0  0  0  0  0  0  0  0  0  0
   -1.1795   -2.4322    0.0165 N   0  0  0  0  0  0  0  0  0  0  0  0
   -0.6424   -3.7630   -0.0385 C   0  0  0  0  0  0  0  0  0  0  0  0
   -1.3031   -0.1564    0.0283 N   0  0  0  0  0  0  0  0  0  0  0  0
   -0.7201    1.0639    0.0212 C   0  0  0  0  0  0  0  0  0  0  0  0
    1.0634    2.2649    0.0008 H   0  0  0  0  0  0  0  0  0  0  0  0
    2.5402    0.2459   -0.0214 H   0  0  0  0  0  0  0  0  0  0  0  0
    1.5215   -1.9909   -0.0172 H   0  0  0  0  0  0  0  0  0  0  0  0
   -2.1840   -2.3080    0.0496 H   0  0  0  0  0  0  0  0  0  0  0  0
    0.4436   -3.8042   -0.1479 H   0  0  0  0  0  0  0  0  0  0  0  0
   -1.0777   -4.2989   -0.8880 H   0  0  0  0  0  0  0  0  0  0  0  0
   -0.9090   -4.3055    0.8739 H   0  0  0  0  0  0  0  0  0  0  0  0
   -1.4095    1.9031    0.0300 H   0  0  0  0  0  0  0  0  0  0  0  0
  1  2  1  0  0  0  0
  1  8  2  0  0  0  0
  1  9  1  0  0  0  0
  2  3  2  0  0  0  0
  2 10  1  0  0  0  0
  3  4  1  0  0  0  0
  3 11  1  0  0  0  0
  4  5  1  0  0  0  0
  4  7  2  0  0  0  0
  5  6  1  0  0  0  0
  5 12  1  0  0  0  0
  6 13  1  0  0  0  0
  6 14  1  0  0  0  0
  6 15  1  0  0  0  0
  7  8  1  0  0  0  0
  8 16  1  0  0  0  0
M  END
$$$$
