
 OpenBabel04232216433D

 35 35  0  0  0  0  0  0  0  0999 V2000
    6.3250   -1.0355    3.1167 C   0  0  0  0  0  0  0  0  0  0  0  0
    5.5611   -0.3193    2.0564 C   0  0  0  0  0  0  0  0  0  0  0  0
    4.5935   -1.0284    1.4409 C   0  0  0  0  0  0  0  0  0  0  0  0
    4.8448   -1.3176    0.0099 C   0  0  0  0  0  0  0  0  0  0  0  0
    5.2061   -2.6056   -0.2103 C   0  0  0  0  0  0  0  0  0  0  0  0
    6.6313   -2.9034   -0.0425 C   0  0  0  0  0  0  0  0  0  0  0  0
    7.1675   -3.6424    0.9618 C   0  0  0  0  0  0  0  0  0  0  0  0
    6.3560   -4.3745    2.0058 C   0  0  0  0  0  0  0  0  0  0  0  0
    8.5457   -3.6601    1.1166 N   0  0  0  0  0  0  0  0  0  0  0  0
    9.3356   -4.5392    1.9567 C   0  0  0  0  0  0  0  0  0  0  0  0
   10.6339   -3.8594    2.3747 C   0  0  0  0  0  0  0  0  0  0  0  0
   10.5617   -3.1761    3.7486 C   0  0  0  0  0  0  0  0  0  0  0  0
    9.8280   -1.8204    3.8364 C   0  0  0  0  0  0  0  0  0  0  0  0
    8.3086   -1.8017    4.1179 C   0  0  0  0  0  0  0  0  0  0  0  0
    7.6151   -0.9699    3.1218 N   0  0  0  0  0  0  0  0  0  0  0  0
    5.7433   -1.6812    3.7990 H   0  0  0  0  0  0  0  0  0  0  0  0
    6.1776    0.3839    1.5018 H   0  0  0  0  0  0  0  0  0  0  0  0
    4.0456   -1.8120    1.9634 H   0  0  0  0  0  0  0  0  0  0  0  0
    5.4613   -0.5432   -0.4584 H   0  0  0  0  0  0  0  0  0  0  0  0
    4.5740   -3.3836    0.2143 H   0  0  0  0  0  0  0  0  0  0  0  0
    7.3007   -2.3626   -0.7051 H   0  0  0  0  0  0  0  0  0  0  0  0
    5.3075   -4.0849    2.0363 H   0  0  0  0  0  0  0  0  0  0  0  0
    6.7332   -4.1521    3.0099 H   0  0  0  0  0  0  0  0  0  0  0  0
    6.4159   -5.4588    1.8626 H   0  0  0  0  0  0  0  0  0  0  0  0
    8.9808   -2.7677    0.8841 H   0  0  0  0  0  0  0  0  0  0  0  0
    9.5709   -5.4317    1.3649 H   0  0  0  0  0  0  0  0  0  0  0  0
    8.7949   -4.8828    2.8424 H   0  0  0  0  0  0  0  0  0  0  0  0
   10.9892   -3.1555    1.6128 H   0  0  0  0  0  0  0  0  0  0  0  0
   11.4055   -4.6410    2.4409 H   0  0  0  0  0  0  0  0  0  0  0  0
   10.1950   -3.8782    4.5055 H   0  0  0  0  0  0  0  0  0  0  0  0
   11.6092   -2.9743    4.0209 H   0  0  0  0  0  0  0  0  0  0  0  0
   10.2834   -1.3185    4.7013 H   0  0  0  0  0  0  0  0  0  0  0  0
   10.0857   -1.2092    2.9649 H   0  0  0  0  0  0  0  0  0  0  0  0
    8.1526   -1.3199    5.0913 H   0  0  0  0  0  0  0  0  0  0  0  0
    7.8965   -2.8112    4.1859 H   0  0  0  0  0  0  0  0  0  0  0  0
  1  2  1  0  0  0  0
  1 15  2  3  0  0  0
  1 16  1  0  0  0  0
  2  3  2  3  0  0  0
  2 17  1  0  0  0  0
  3  4  1  0  0  0  0
  3 18  1  0  0  0  0
  4  5  2  3  0  0  0
  4 19  1  0  0  0  0
  5  6  1  0  0  0  0
  5 20  1  0  0  0  0
  6  7  2  3  0  0  0
  6 21  1  0  0  0  0
  7  8  1  0  0  0  0
  7  9  1  0  0  0  0
  8 22  1  0  0  0  0
  8 23  1  0  0  0  0
  8 24  1  0  0  0  0
  9 10  1  0  0  0  0
  9 25  1  0  0  0  0
 10 11  1  0  0  0  0
 10 26  1  0  0  0  0
 10 27  1  0  0  0  0
 11 12  1  0  0  0  0
 11 28  1  0  0  0  0
 11 29  1  0  0  0  0
 12 13  1  0  0  0  0
 12 30  1  0  0  0  0
 12 31  1  0  0  0  0
 13 14  1  0  0  0  0
 13 32  1  0  0  0  0
 13 33  1  0  0  0  0
 14 15  1  0  0  0  0
 14 34  1  0  0  0  0
 14 35  1  0  0  0  0
M  END
$$$$
