
 OpenBabel04232216523D

 30 30  0  0  1  0  0  0  0  0999 V2000
    0.7812   -0.5947    2.7004 C   0  0  0  0  0  0  0  0  0  0  0  0
    2.2978   -0.4785    2.7082 C   0  0  0  0  0  0  0  0  0  0  0  0
    2.8962   -0.5820    1.2988 C   0  0  0  0  0  0  0  0  0  0  0  0
    4.4369   -0.5194    1.3097 C   0  0  3  0  0  0  0  0  0  0  0  0
    5.0312   -1.6902    2.1032 C   0  0  0  0  0  0  0  0  0  0  0  0
    6.4728   -1.7471    1.6496 C   0  0  0  0  0  0  0  0  0  0  0  0
    6.4248   -1.4144    0.1674 C   0  0  0  0  0  0  0  0  0  0  0  0
    5.0966   -0.6647   -0.0843 C   0  0  3  0  0  0  0  0  0  0  0  0
    5.3899    0.6466   -0.8326 C   0  0  0  0  0  0  0  0  0  0  0  0
    4.1698    1.4483   -1.2403 C   0  0  0  0  0  0  0  0  0  0  0  0
    0.3925   -0.4870    3.7183 H   0  0  0  0  0  0  0  0  0  0  0  0
    0.4655   -1.5726    2.3220 H   0  0  0  0  0  0  0  0  0  0  0  0
    0.3272    0.1836    2.0769 H   0  0  0  0  0  0  0  0  0  0  0  0
    2.6904   -1.2728    3.3525 H   0  0  0  0  0  0  0  0  0  0  0  0
    2.5856    0.4757    3.1598 H   0  0  0  0  0  0  0  0  0  0  0  0
    2.4936    0.2274    0.6829 H   0  0  0  0  0  0  0  0  0  0  0  0
    2.5688   -1.5207    0.8340 H   0  0  0  0  0  0  0  0  0  0  0  0
    4.7580    0.4251    1.7692 H   0  0  0  0  0  0  0  0  0  0  0  0
    4.5217   -2.6295    1.8544 H   0  0  0  0  0  0  0  0  0  0  0  0
    4.9631   -1.5404    3.1845 H   0  0  0  0  0  0  0  0  0  0  0  0
    6.9260   -2.7251    1.8379 H   0  0  0  0  0  0  0  0  0  0  0  0
    7.0636   -0.9942    2.1845 H   0  0  0  0  0  0  0  0  0  0  0  0
    6.4454   -2.3322   -0.4307 H   0  0  0  0  0  0  0  0  0  0  0  0
    7.3085   -0.8302   -0.1139 H   0  0  0  0  0  0  0  0  0  0  0  0
    4.4654   -1.2964   -0.7241 H   0  0  0  0  0  0  0  0  0  0  0  0
    5.9485    0.4016   -1.7478 H   0  0  0  0  0  0  0  0  0  0  0  0
    6.0500    1.2833   -0.2306 H   0  0  0  0  0  0  0  0  0  0  0  0
    3.4507    0.8305   -1.7866 H   0  0  0  0  0  0  0  0  0  0  0  0
    4.4696    2.2733   -1.8943 H   0  0  0  0  0  0  0  0  0  0  0  0
    3.6743    1.8862   -0.3688 H   0  0  0  0  0  0  0  0  0  0  0  0
  1  2  1  0  0  0  0
  1 11  1  0  0  0  0
  1 12  1  0  0  0  0
  1 13  1  0  0  0  0
  2  3  1  0  0  0  0
  2 14  1  0  0  0  0
  2 15  1  0  0  0  0
  3  4  1  0  0  0  0
  3 16  1  0  0  0  0
  3 17  1  0  0  0  0
  4  5  1  0  0  0  0
  4  8  1  0  0  0  0
  4 18  1  0  0  0  0
  5  6  1  0  0  0  0
  5 19  1  0  0  0  0
  5 20  1  0  0  0  0
  6  7  1  0  0  0  0
  6 21  1  0  0  0  0
  6 22  1  0  0  0  0
  7  8  1  0  0  0  0
  7 23  1  0  0  0  0
  7 24  1  0  0  0  0
  8  9  1  0  0  0  0
  8 25  1  0  0  0  0
  9 10  1  0  0  0  0
  9 26  1  0  0  0  0
  9 27  1  0  0  0  0
 10 28  1  0  0  0  0
 10 29  1  0  0  0  0
 10 30  1  0  0  0  0
M  END
$$$$
