
 OpenBabel04232216443D

 44 46  0  0  1  0  0  0  0  0999 V2000
    1.7661    1.2401   -0.3105 C   0  0  0  0  0  0  0  0  0  0  0  0
    3.2298    0.9655    0.0290 C   0  0  0  0  0  0  0  0  0  0  0  0
    3.8984   -0.2191   -0.7968 C   0  0  0  0  0  0  0  0  0  0  0  0
    3.4358   -0.4218   -2.1063 N   0  0  0  0  0  0  0  0  0  0  0  0
    3.1567   -1.7712   -2.5943 C   0  0  0  0  0  0  0  0  0  0  0  0
    4.4130   -2.4174   -3.1576 C   0  0  0  0  0  0  0  0  0  0  0  0
    5.6624   -2.2381   -2.2957 C   0  0  0  0  0  0  0  0  0  0  0  0
    5.4054   -2.3004   -0.7874 C   0  0  0  0  0  0  0  0  0  0  0  0
    4.7065   -1.1160   -0.1638 C   0  0  0  0  0  0  0  0  0  0  0  0
    4.8849   -1.0180    1.2649 C   0  0  0  0  0  0  0  0  0  0  0  0
    3.8655   -1.2717    2.1062 C   0  0  0  0  0  0  0  0  0  0  0  0
    2.6251   -2.0504    1.7636 C   0  0  0  0  0  0  0  0  0  0  0  0
    3.8135   -0.4417    3.2937 C   0  0  0  0  0  0  0  0  0  0  0  0
    3.0301    0.8278    3.1620 C   0  0  0  0  0  0  0  0  0  0  0  0
    1.5039    0.6752    3.1845 C   0  0  0  0  0  0  0  0  0  0  0  0
    3.4672    1.8889    4.1613 C   0  0  0  0  0  0  0  0  0  0  0  0
    3.4614    2.8504    3.2090 C   0  0  0  0  0  0  0  0  0  0  0  0
    3.3470    4.3504    3.3764 C   0  0  0  0  0  0  0  0  0  0  0  0
    3.4239    1.8280    2.1515 C   0  0  3  0  0  3  0  0  0  0  0  0
    3.9026    1.7144    0.8751 N   0  0  0  0  0  0  0  0  0  0  0  0
    1.2607    0.3314   -0.6547 H   0  0  0  0  0  0  0  0  0  0  0  0
    1.7408    1.9715   -1.1272 H   0  0  0  0  0  0  0  0  0  0  0  0
    1.2024    1.6537    0.5242 H   0  0  0  0  0  0  0  0  0  0  0  0
    2.7557    0.2671   -2.4125 H   0  0  0  0  0  0  0  0  0  0  0  0
    2.3869   -1.7287   -3.3717 H   0  0  0  0  0  0  0  0  0  0  0  0
    2.7327   -2.4031   -1.7989 H   0  0  0  0  0  0  0  0  0  0  0  0
    4.6190   -2.0112   -4.1546 H   0  0  0  0  0  0  0  0  0  0  0  0
    4.2184   -3.4862   -3.2959 H   0  0  0  0  0  0  0  0  0  0  0  0
    6.1534   -1.2912   -2.5437 H   0  0  0  0  0  0  0  0  0  0  0  0
    6.3823   -3.0222   -2.5663 H   0  0  0  0  0  0  0  0  0  0  0  0
    6.3865   -2.4041   -0.3087 H   0  0  0  0  0  0  0  0  0  0  0  0
    4.8471   -3.2144   -0.5471 H   0  0  0  0  0  0  0  0  0  0  0  0
    5.7376   -0.4122    1.5774 H   0  0  0  0  0  0  0  0  0  0  0  0
    2.8524   -2.9203    1.1404 H   0  0  0  0  0  0  0  0  0  0  0  0
    1.9095   -1.4349    1.2125 H   0  0  0  0  0  0  0  0  0  0  0  0
    2.1320   -2.4202    2.6682 H   0  0  0  0  0  0  0  0  0  0  0  0
    4.6748   -0.4606    3.9552 H   0  0  0  0  0  0  0  0  0  0  0  0
    1.1311    0.1532    2.3097 H   0  0  0  0  0  0  0  0  0  0  0  0
    1.0102    1.6624    3.1624 H   0  0  0  0  0  0  0  0  0  0  0  0
    1.1665    0.1553    4.0826 H   0  0  0  0  0  0  0  0  0  0  0  0
    3.4815    1.8900    5.2451 H   0  0  0  0  0  0  0  0  0  0  0  0
    2.7298    4.7884    2.5936 H   0  0  0  0  0  0  0  0  0  0  0  0
    4.3309    4.8404    3.3489 H   0  0  0  0  0  0  0  0  0  0  0  0
    2.9275    4.5646    4.3684 H   0  0  0  0  0  0  0  0  0  0  0  0
  1  2  1  0  0  0  0
  1 21  1  0  0  0  0
  1 22  1  0  0  0  0
  1 23  1  0  0  0  0
  2  3  1  0  0  0  0
  2 20  2  3  0  0  0
  3  4  1  0  0  0  0
  3  9  2  0  0  0  0
  4  5  1  0  0  0  0
  4 24  1  0  0  0  0
  5  6  1  0  0  0  0
  5 25  1  0  0  0  0
  5 26  1  0  0  0  0
  6  7  1  0  0  0  0
  6 27  1  0  0  0  0
  6 28  1  0  0  0  0
  7  8  1  0  0  0  0
  7 29  1  0  0  0  0
  7 30  1  0  0  0  0
  8  9  1  0  0  0  0
  8 31  1  0  0  0  0
  8 32  1  0  0  0  0
  9 10  1  0  0  0  0
 10 11  2  3  0  0  0
 10 33  1  0  0  0  0
 11 12  1  0  0  0  0
 11 13  1  0  0  0  0
 12 34  1  0  0  0  0
 12 35  1  0  0  0  0
 12 36  1  0  0  0  0
 13 14  2  0  0  0  0
 13 37  1  0  0  0  0
 14 15  1  0  0  0  0
 14 16  1  0  0  0  0
 14 19  1  0  0  0  0
 15 38  1  0  0  0  0
 15 39  1  0  0  0  0
 15 40  1  0  0  0  0
 16 17  2  0  0  0  0
 16 41  1  0  0  0  0
 17 18  1  0  0  0  0
 17 19  1  0  0  0  0
 18 42  1  0  0  0  0
 18 43  1  0  0  0  0
 18 44  1  0  0  0  0
 19 20  1  0  0  0  0
M  END
$$$$
