
 OpenBabel04232216413D

220219  0  0  0  0  0  0  0  0999 V2000
    1.4363    0.5417   -0.9615 C   0  0  0  0  0  0  0  0  0  0  0  0
    2.2978    0.0109   -0.0796 C   0  0  0  0  0  0  0  0  0  0  0  0
    3.0979    0.8407    0.8982 C   0  0  0  0  0  0  0  0  0  0  0  0
    4.5327    0.6574    0.6982 N   0  0  0  0  0  0  0  0  0  0  0  0
    5.2282    1.4597    1.6406 N   0  0  0  0  0  0  0  0  0  0  0  0
    6.6229    1.2938    1.4577 N   0  0  0  0  0  0  0  0  0  0  0  0
    7.3262    2.0824    2.3834 N   0  0  0  0  0  0  0  0  0  0  0  0
    8.7131    1.9059    2.1907 N   0  0  0  0  0  0  0  0  0  0  0  0
    9.4257    2.6971    3.1181 N   0  0  0  0  0  0  0  0  0  0  0  0
   10.8266    2.5310    2.9424 N   0  0  0  0  0  0  0  0  0  0  0  0
   11.5410    3.3248    3.8708 N   0  0  0  0  0  0  0  0  0  0  0  0
   12.9334    3.1543    3.6859 N   0  0  0  0  0  0  0  0  0  0  0  0
   13.6352    3.9441    4.6121 N   0  0  0  0  0  0  0  0  0  0  0  0
   15.0261    3.7700    4.4193 N   0  0  0  0  0  0  0  0  0  0  0  0
   15.7434    4.5645    5.3519 N   0  0  0  0  0  0  0  0  0  0  0  0
   17.1448    4.3976    5.1720 N   0  0  0  0  0  0  0  0  0  0  0  0
   17.8669    5.1915    6.1058 N   0  0  0  0  0  0  0  0  0  0  0  0
   19.2599    5.0224    5.9194 N   0  0  0  0  0  0  0  0  0  0  0  0
   19.9736    5.8120    6.8515 N   0  0  0  0  0  0  0  0  0  0  0  0
   21.3630    5.6414    6.6608 N   0  0  0  0  0  0  0  0  0  0  0  0
   22.0673    6.4293    7.5878 N   0  0  0  0  0  0  0  0  0  0  0  0
   23.4699    6.2685    7.4054 N   0  0  0  0  0  0  0  0  0  0  0  0
   24.1805    7.0695    8.3506 N   0  0  0  0  0  0  0  0  0  0  0  0
   25.6151    6.8831    8.1358 C   0  0  0  0  0  0  0  0  0  0  0  0
   26.3762    7.7313    9.1370 C   0  0  0  0  0  0  0  0  0  0  0  0
   27.8705    7.5533    8.9349 C   0  0  0  0  0  0  0  0  0  0  0  0
   28.6359    8.3994    9.9335 C   0  0  0  0  0  0  0  0  0  0  0  0
   30.1276    8.2207    9.7307 C   0  0  0  0  0  0  0  0  0  0  0  0
   30.8914    9.0669   10.7295 C   0  0  0  0  0  0  0  0  0  0  0  0
   32.3826    8.8881   10.5266 C   0  0  0  0  0  0  0  0  0  0  0  0
   33.1461    9.7343   11.5255 C   0  0  0  0  0  0  0  0  0  0  0  0
   34.6372    9.5555   11.3225 C   0  0  0  0  0  0  0  0  0  0  0  0
   35.4005   10.4002   12.3226 C   0  0  0  0  0  0  0  0  0  0  0  0
   36.8916   10.2214   12.1196 C   0  0  0  0  0  0  0  0  0  0  0  0
   37.6549   11.0660   13.1197 C   0  0  0  0  0  0  0  0  0  0  0  0
   39.1460   10.8872   12.9167 C   0  0  0  0  0  0  0  0  0  0  0  0
   39.9093   11.7303   13.9181 C   0  0  0  0  0  0  0  0  0  0  0  0
   41.4004   11.5530   13.7138 C   0  0  0  0  0  0  0  0  0  0  0  0
   42.1637   12.3977   14.7140 C   0  0  0  0  0  0  0  0  0  0  0  0
   43.6548   12.2219   14.5083 C   0  0  0  0  0  0  0  0  0  0  0  0
   44.4181   13.0651   15.5098 C   0  0  0  0  0  0  0  0  0  0  0  0
   45.9092   12.8908   15.3028 C   0  0  0  0  0  0  0  0  0  0  0  0
   46.6725   13.7340   16.3043 C   0  0  0  0  0  0  0  0  0  0  0  0
   48.1636   13.5598   16.0974 C   0  0  0  0  0  0  0  0  0  0  0  0
   48.9269   14.4029   17.0988 C   0  0  0  0  0  0  0  0  0  0  0  0
   50.4180   14.2287   16.8919 C   0  0  0  0  0  0  0  0  0  0  0  0
   51.1814   15.0718   17.8933 C   0  0  0  0  0  0  0  0  0  0  0  0
   52.6724   14.8991   17.6851 C   0  0  0  0  0  0  0  0  0  0  0  0
   53.4358   15.7407   18.6878 C   0  0  0  0  0  0  0  0  0  0  0  0
   54.9268   15.5696   18.4783 C   0  0  0  0  0  0  0  0  0  0  0  0
   55.6902   16.4111   19.4811 C   0  0  0  0  0  0  0  0  0  0  0  0
   57.1812   16.2385   19.2728 C   0  0  0  0  0  0  0  0  0  0  0  0
   57.9446   17.0816   20.2743 C   0  0  0  0  0  0  0  0  0  0  0  0
   59.4356   16.9105   20.0648 C   0  0  0  0  0  0  0  0  0  0  0  0
   60.1990   17.7521   21.0675 C   0  0  0  0  0  0  0  0  0  0  0  0
   61.6900   17.5794   20.8593 C   0  0  0  0  0  0  0  0  0  0  0  0
   62.4534   18.4225   21.8607 C   0  0  0  0  0  0  0  0  0  0  0  0
   63.9444   18.2498   21.6525 C   0  0  0  0  0  0  0  0  0  0  0  0
   64.7078   19.0914   22.6552 C   0  0  0  0  0  0  0  0  0  0  0  0
   66.1989   18.9187   22.4470 C   0  0  0  0  0  0  0  0  0  0  0  0
   66.9622   19.7603   23.4497 C   0  0  0  0  0  0  0  0  0  0  0  0
   68.4533   19.5876   23.2415 C   0  0  0  0  0  0  0  0  0  0  0  0
   69.2166   20.4292   24.2443 C   0  0  0  0  0  0  0  0  0  0  0  0
   70.7077   20.2565   24.0360 C   0  0  0  0  0  0  0  0  0  0  0  0
   71.4710   21.0981   25.0388 C   0  0  0  0  0  0  0  0  0  0  0  0
   72.9621   20.9255   24.8305 C   0  0  0  0  0  0  0  0  0  0  0  0
   73.7254   21.7670   25.8333 C   0  0  0  0  0  0  0  0  0  0  0  0
   75.2165   21.5944   25.6251 C   0  0  0  0  0  0  0  0  0  0  0  0
   75.9798   22.4344   26.6291 C   0  0  0  0  0  0  0  0  0  0  0  0
   77.4709   22.2617   26.4209 C   0  0  0  0  0  0  0  0  0  0  0  0
   78.2343   23.1017   27.4249 C   0  0  0  0  0  0  0  0  0  0  0  0
   79.7253   22.9291   27.2167 C   0  0  0  0  0  0  0  0  0  0  0  0
   80.4887   23.7691   28.2207 C   0  0  0  0  0  0  0  0  0  0  0  0
   81.9797   23.5964   28.0125 C   0  0  0  0  0  0  0  0  0  0  0  0
   82.7431   24.4380   29.0152 C   0  0  0  0  0  0  0  0  0  0  0  0
   84.2343   24.2656   28.8073 C   0  0  0  0  0  0  0  0  0  0  0  0
   84.9977   25.1074   29.8103 C   0  0  0  0  0  0  0  0  0  0  0  0
   86.4894   24.9371   29.6018 C   0  0  0  0  0  0  0  0  0  0  0  0
   87.2571   25.7803   30.6033 C   0  0  0  0  0  0  0  0  0  0  0  0
   88.7446   25.6071   30.3913 C   0  0  0  0  0  0  0  0  0  0  0  0
    0.8778   -0.0762   -1.6565 H   0  0  0  0  0  0  0  0  0  0  0  0
    1.2890    1.6155   -0.9934 H   0  0  0  0  0  0  0  0  0  0  0  0
    2.4309   -1.0678   -0.0675 H   0  0  0  0  0  0  0  0  0  0  0  0
    2.8112    0.5293    1.9126 H   0  0  0  0  0  0  0  0  0  0  0  0
    2.8140    1.8935    0.7697 H   0  0  0  0  0  0  0  0  0  0  0  0
    4.7903    0.9747   -0.2338 H   0  0  0  0  0  0  0  0  0  0  0  0
    4.9802    1.1659    2.5844 H   0  0  0  0  0  0  0  0  0  0  0  0
    6.8717    1.5654    0.5079 H   0  0  0  0  0  0  0  0  0  0  0  0
    7.0775    1.8027    3.3296 H   0  0  0  0  0  0  0  0  0  0  0  0
    8.8981    2.1633    1.2182 H   0  0  0  0  0  0  0  0  0  0  0  0
    9.1846    2.4042    4.0690 H   0  0  0  0  0  0  0  0  0  0  0  0
   11.0974    2.8274    2.0062 H   0  0  0  0  0  0  0  0  0  0  0  0
   11.3030    3.0422    4.8202 H   0  0  0  0  0  0  0  0  0  0  0  0
   13.1891    3.4511    2.7462 H   0  0  0  0  0  0  0  0  0  0  0  0
   13.4007    3.6597    5.5595 H   0  0  0  0  0  0  0  0  0  0  0  0
   15.2344    4.0222    3.4502 H   0  0  0  0  0  0  0  0  0  0  0  0
   15.4442    4.2887    6.2969 H   0  0  0  0  0  0  0  0  0  0  0  0
   17.4309    4.7009    4.2368 H   0  0  0  0  0  0  0  0  0  0  0  0
   17.6344    4.9053    7.0541 H   0  0  0  0  0  0  0  0  0  0  0  0
   19.5130    5.3188    4.9792 H   0  0  0  0  0  0  0  0  0  0  0  0
   19.7218    5.5196    7.7948 H   0  0  0  0  0  0  0  0  0  0  0  0
   21.6062    5.9347    5.7152 H   0  0  0  0  0  0  0  0  0  0  0  0
   21.8169    6.1433    8.5339 H   0  0  0  0  0  0  0  0  0  0  0  0
   23.7013    6.5603    6.4544 H   0  0  0  0  0  0  0  0  0  0  0  0
   23.9357    6.7617    9.2918 H   0  0  0  0  0  0  0  0  0  0  0  0
   25.8839    7.1943    7.1190 H   0  0  0  0  0  0  0  0  0  0  0  0
   25.8894    5.8289    8.2615 H   0  0  0  0  0  0  0  0  0  0  0  0
   26.1080    7.4373   10.1589 H   0  0  0  0  0  0  0  0  0  0  0  0
   26.1135    8.7887    9.0103 H   0  0  0  0  0  0  0  0  0  0  0  0
   28.1457    7.8478    7.9150 H   0  0  0  0  0  0  0  0  0  0  0  0
   28.1396    6.4981    9.0630 H   0  0  0  0  0  0  0  0  0  0  0  0
   28.3640    8.1049   10.9540 H   0  0  0  0  0  0  0  0  0  0  0  0
   28.3696    9.4552    9.8059 H   0  0  0  0  0  0  0  0  0  0  0  0
   30.4011    8.5153    8.7106 H   0  0  0  0  0  0  0  0  0  0  0  0
   30.3955    7.1652    9.8587 H   0  0  0  0  0  0  0  0  0  0  0  0
   30.6187    8.7724   11.7498 H   0  0  0  0  0  0  0  0  0  0  0  0
   30.6243   10.1226   10.6017 H   0  0  0  0  0  0  0  0  0  0  0  0
   32.6557    9.1827    9.5064 H   0  0  0  0  0  0  0  0  0  0  0  0
   32.6501    7.8326   10.6545 H   0  0  0  0  0  0  0  0  0  0  0  0
   32.8732    9.4398   12.5457 H   0  0  0  0  0  0  0  0  0  0  0  0
   32.8788   10.7900   11.3976 H   0  0  0  0  0  0  0  0  0  0  0  0
   34.9103    9.8515   10.3027 H   0  0  0  0  0  0  0  0  0  0  0  0
   34.9043    8.4997   11.4489 H   0  0  0  0  0  0  0  0  0  0  0  0
   35.1274   10.1042   13.3424 H   0  0  0  0  0  0  0  0  0  0  0  0
   35.1334   11.4560   12.1961 H   0  0  0  0  0  0  0  0  0  0  0  0
   37.1647   10.5173   11.0998 H   0  0  0  0  0  0  0  0  0  0  0  0
   37.1587    9.1655   12.2461 H   0  0  0  0  0  0  0  0  0  0  0  0
   37.3818   10.7701   14.1395 H   0  0  0  0  0  0  0  0  0  0  0  0
   37.3878   12.1218   12.9932 H   0  0  0  0  0  0  0  0  0  0  0  0
   39.4194   11.1845   11.8974 H   0  0  0  0  0  0  0  0  0  0  0  0
   39.4129    9.8312   13.0418 H   0  0  0  0  0  0  0  0  0  0  0  0
   39.6370   11.4320   14.9374 H   0  0  0  0  0  0  0  0  0  0  0  0
   39.6413   12.7862   13.7940 H   0  0  0  0  0  0  0  0  0  0  0  0
   41.6725   11.8500   12.6941 H   0  0  0  0  0  0  0  0  0  0  0  0
   41.6686   10.4974   13.8393 H   0  0  0  0  0  0  0  0  0  0  0  0
   41.8927   12.0998   15.7337 H   0  0  0  0  0  0  0  0  0  0  0  0
   41.8945   13.4532   14.5894 H   0  0  0  0  0  0  0  0  0  0  0  0
   43.9260   12.5212   13.4890 H   0  0  0  0  0  0  0  0  0  0  0  0
   43.9238   11.1662   14.6315 H   0  0  0  0  0  0  0  0  0  0  0  0
   44.1480   12.7648   16.5291 H   0  0  0  0  0  0  0  0  0  0  0  0
   44.1480   14.1206   15.3876 H   0  0  0  0  0  0  0  0  0  0  0  0
   46.1793   13.1911   14.2835 H   0  0  0  0  0  0  0  0  0  0  0  0
   46.1793   11.8353   15.4250 H   0  0  0  0  0  0  0  0  0  0  0  0
   46.4024   13.4337   17.3236 H   0  0  0  0  0  0  0  0  0  0  0  0
   46.4024   14.7895   16.1821 H   0  0  0  0  0  0  0  0  0  0  0  0
   48.4337   13.8600   15.0781 H   0  0  0  0  0  0  0  0  0  0  0  0
   48.4337   12.5042   16.2195 H   0  0  0  0  0  0  0  0  0  0  0  0
   48.6568   14.1026   18.1181 H   0  0  0  0  0  0  0  0  0  0  0  0
   48.6568   15.4584   16.9766 H   0  0  0  0  0  0  0  0  0  0  0  0
   50.6881   14.5289   15.8726 H   0  0  0  0  0  0  0  0  0  0  0  0
   50.6882   13.1731   17.0140 H   0  0  0  0  0  0  0  0  0  0  0  0
   50.9123   14.7706   18.9126 H   0  0  0  0  0  0  0  0  0  0  0  0
   50.9101   16.1272   17.7721 H   0  0  0  0  0  0  0  0  0  0  0  0
   52.9417   15.2017   16.6663 H   0  0  0  0  0  0  0  0  0  0  0  0
   52.9434   13.8435   17.8049 H   0  0  0  0  0  0  0  0  0  0  0  0
   53.1676   15.4371   19.7067 H   0  0  0  0  0  0  0  0  0  0  0  0
   53.1637   16.7961   18.5690 H   0  0  0  0  0  0  0  0  0  0  0  0
   55.1950   15.8732   17.4595 H   0  0  0  0  0  0  0  0  0  0  0  0
   55.1989   14.5141   18.5971 H   0  0  0  0  0  0  0  0  0  0  0  0
   55.4209   16.1085   20.4999 H   0  0  0  0  0  0  0  0  0  0  0  0
   55.4192   17.4668   19.3613 H   0  0  0  0  0  0  0  0  0  0  0  0
   57.4503   16.5397   18.2535 H   0  0  0  0  0  0  0  0  0  0  0  0
   57.4525   15.1831   19.3940 H   0  0  0  0  0  0  0  0  0  0  0  0
   57.6766   16.7794   21.2936 H   0  0  0  0  0  0  0  0  0  0  0  0
   57.6723   18.1368   20.1540 H   0  0  0  0  0  0  0  0  0  0  0  0
   59.7038   17.2141   19.0459 H   0  0  0  0  0  0  0  0  0  0  0  0
   59.7077   15.8550   20.1836 H   0  0  0  0  0  0  0  0  0  0  0  0
   59.9297   17.4495   22.0863 H   0  0  0  0  0  0  0  0  0  0  0  0
   59.9280   18.8077   20.9477 H   0  0  0  0  0  0  0  0  0  0  0  0
   61.9591   17.8806   19.8400 H   0  0  0  0  0  0  0  0  0  0  0  0
   61.9613   16.5240   20.9805 H   0  0  0  0  0  0  0  0  0  0  0  0
   62.1843   18.1213   22.8800 H   0  0  0  0  0  0  0  0  0  0  0  0
   62.1822   19.4779   21.7395 H   0  0  0  0  0  0  0  0  0  0  0  0
   64.2137   18.5524   20.6337 H   0  0  0  0  0  0  0  0  0  0  0  0
   64.2154   17.1942   21.7723 H   0  0  0  0  0  0  0  0  0  0  0  0
   64.4385   18.7888   23.6741 H   0  0  0  0  0  0  0  0  0  0  0  0
   64.4368   20.1470   22.5355 H   0  0  0  0  0  0  0  0  0  0  0  0
   66.4681   19.2213   21.4282 H   0  0  0  0  0  0  0  0  0  0  0  0
   66.4699   17.8631   22.5668 H   0  0  0  0  0  0  0  0  0  0  0  0
   66.6929   19.4577   24.4686 H   0  0  0  0  0  0  0  0  0  0  0  0
   66.6912   20.8159   23.3300 H   0  0  0  0  0  0  0  0  0  0  0  0
   68.7225   19.8902   22.2227 H   0  0  0  0  0  0  0  0  0  0  0  0
   68.7243   18.5320   23.3613 H   0  0  0  0  0  0  0  0  0  0  0  0
   68.9473   20.1266   25.2631 H   0  0  0  0  0  0  0  0  0  0  0  0
   68.9456   21.4848   24.1245 H   0  0  0  0  0  0  0  0  0  0  0  0
   70.9770   20.5591   23.0172 H   0  0  0  0  0  0  0  0  0  0  0  0
   70.9787   19.2009   24.1558 H   0  0  0  0  0  0  0  0  0  0  0  0
   71.2017   20.7955   26.0576 H   0  0  0  0  0  0  0  0  0  0  0  0
   71.2000   22.1537   24.9190 H   0  0  0  0  0  0  0  0  0  0  0  0
   73.2314   21.2281   23.8117 H   0  0  0  0  0  0  0  0  0  0  0  0
   73.2331   19.8698   24.9503 H   0  0  0  0  0  0  0  0  0  0  0  0
   73.4562   21.4644   26.8521 H   0  0  0  0  0  0  0  0  0  0  0  0
   73.4544   22.8226   25.7135 H   0  0  0  0  0  0  0  0  0  0  0  0
   75.4860   21.8983   24.6067 H   0  0  0  0  0  0  0  0  0  0  0  0
   75.4873   20.5385   25.7434 H   0  0  0  0  0  0  0  0  0  0  0  0
   75.7103   22.1304   27.6475 H   0  0  0  0  0  0  0  0  0  0  0  0
   75.7091   23.4902   26.5107 H   0  0  0  0  0  0  0  0  0  0  0  0
   77.7404   22.5657   25.4025 H   0  0  0  0  0  0  0  0  0  0  0  0
   77.7417   21.2059   26.5392 H   0  0  0  0  0  0  0  0  0  0  0  0
   77.9648   22.7978   28.4433 H   0  0  0  0  0  0  0  0  0  0  0  0
   77.9635   24.1576   27.3065 H   0  0  0  0  0  0  0  0  0  0  0  0
   79.9948   23.2330   26.1983 H   0  0  0  0  0  0  0  0  0  0  0  0
   79.9961   21.8732   27.3350 H   0  0  0  0  0  0  0  0  0  0  0  0
   80.2192   23.4651   29.2391 H   0  0  0  0  0  0  0  0  0  0  0  0
   80.2179   24.8249   28.1023 H   0  0  0  0  0  0  0  0  0  0  0  0
   82.2490   23.8990   26.9936 H   0  0  0  0  0  0  0  0  0  0  0  0
   82.2507   22.5408   28.1322 H   0  0  0  0  0  0  0  0  0  0  0  0
   82.4738   24.1354   30.0340 H   0  0  0  0  0  0  0  0  0  0  0  0
   82.4721   25.4936   28.8954 H   0  0  0  0  0  0  0  0  0  0  0  0
   84.5035   24.5680   27.7882 H   0  0  0  0  0  0  0  0  0  0  0  0
   84.5052   23.2098   28.9268 H   0  0  0  0  0  0  0  0  0  0  0  0
   84.7291   24.8034   30.8289 H   0  0  0  0  0  0  0  0  0  0  0  0
   84.7252   26.1627   29.6911 H   0  0  0  0  0  0  0  0  0  0  0  0
   86.7563   25.2382   28.5817 H   0  0  0  0  0  0  0  0  0  0  0  0
   86.7606   23.8813   29.7207 H   0  0  0  0  0  0  0  0  0  0  0  0
   86.9924   25.4781   31.6228 H   0  0  0  0  0  0  0  0  0  0  0  0
   86.9881   26.8357   30.4831 H   0  0  0  0  0  0  0  0  0  0  0  0
   89.0281   24.5581   30.5231 H   0  0  0  0  0  0  0  0  0  0  0  0
   89.2990   26.2131   31.1111 H   0  0  0  0  0  0  0  0  0  0  0  0
   89.0238   25.9197   29.3801 H   0  0  0  0  0  0  0  0  0  0  0  0
  1  2  2  0  0  0  0
  1 81  1  0  0  0  0
  1 82  1  0  0  0  0
  2  3  1  0  0  0  0
  2 83  1  0  0  0  0
  3  4  1  0  0  0  0
  3 84  1  0  0  0  0
  3 85  1  0  0  0  0
  4  5  1  0  0  0  0
  4 86  1  0  0  0  0
  5  6  1  0  0  0  0
  5 87  1  0  0  0  0
  6  7  1  0  0  0  0
  6 88  1  0  0  0  0
  7  8  1  0  0  0  0
  7 89  1  0  0  0  0
  8  9  1  0  0  0  0
  8 90  1  0  0  0  0
  9 10  1  0  0  0  0
  9 91  1  0  0  0  0
 10 11  1  0  0  0  0
 10 92  1  0  0  0  0
 11 12  1  0  0  0  0
 11 93  1  0  0  0  0
 12 13  1  0  0  0  0
 12 94  1  0  0  0  0
 13 14  1  0  0  0  0
 13 95  1  0  0  0  0
 14 15  1  0  0  0  0
 14 96  1  0  0  0  0
 15 16  1  0  0  0  0
 15 97  1  0  0  0  0
 16 17  1  0  0  0  0
 16 98  1  0  0  0  0
 17 18  1  0  0  0  0
 17 99  1  0  0  0  0
 18 19  1  0  0  0  0
 18100  1  0  0  0  0
 19 20  1  0  0  0  0
 19101  1  0  0  0  0
 20 21  1  0  0  0  0
 20102  1  0  0  0  0
 21 22  1  0  0  0  0
 21103  1  0  0  0  0
 22 23  1  0  0  0  0
 22104  1  0  0  0  0
 23 24  1  0  0  0  0
 23105  1  0  0  0  0
 24 25  1  0  0  0  0
 24106  1  0  0  0  0
 24107  1  0  0  0  0
 25 26  1  0  0  0  0
 25108  1  0  0  0  0
 25109  1  0  0  0  0
 26 27  1  0  0  0  0
 26110  1  0  0  0  0
 26111  1  0  0  0  0
 27 28  1  0  0  0  0
 27112  1  0  0  0  0
 27113  1  0  0  0  0
 28 29  1  0  0  0  0
 28114  1  0  0  0  0
 28115  1  0  0  0  0
 29 30  1  0  0  0  0
 29116  1  0  0  0  0
 29117  1  0  0  0  0
 30 31  1  0  0  0  0
 30118  1  0  0  0  0
 30119  1  0  0  0  0
 31 32  1  0  0  0  0
 31120  1  0  0  0  0
 31121  1  0  0  0  0
 32 33  1  0  0  0  0
 32122  1  0  0  0  0
 32123  1  0  0  0  0
 33 34  1  0  0  0  0
 33124  1  0  0  0  0
 33125  1  0  0  0  0
 34 35  1  0  0  0  0
 34126  1  0  0  0  0
 34127  1  0  0  0  0
 35 36  1  0  0  0  0
 35128  1  0  0  0  0
 35129  1  0  0  0  0
 36 37  1  0  0  0  0
 36130  1  0  0  0  0
 36131  1  0  0  0  0
 37 38  1  0  0  0  0
 37132  1  0  0  0  0
 37133  1  0  0  0  0
 38 39  1  0  0  0  0
 38134  1  0  0  0  0
 38135  1  0  0  0  0
 39 40  1  0  0  0  0
 39136  1  0  0  0  0
 39137  1  0  0  0  0
 40 41  1  0  0  0  0
 40138  1  0  0  0  0
 40139  1  0  0  0  0
 41 42  1  0  0  0  0
 41140  1  0  0  0  0
 41141  1  0  0  0  0
 42 43  1  0  0  0  0
 42142  1  0  0  0  0
 42143  1  0  0  0  0
 43 44  1  0  0  0  0
 43144  1  0  0  0  0
 43145  1  0  0  0  0
 44 45  1  0  0  0  0
 44146  1  0  0  0  0
 44147  1  0  0  0  0
 45 46  1  0  0  0  0
 45148  1  0  0  0  0
 45149  1  0  0  0  0
 46 47  1  0  0  0  0
 46150  1  0  0  0  0
 46151  1  0  0  0  0
 47 48  1  0  0  0  0
 47152  1  0  0  0  0
 47153  1  0  0  0  0
 48 49  1  0  0  0  0
 48154  1  0  0  0  0
 48155  1  0  0  0  0
 49 50  1  0  0  0  0
 49156  1  0  0  0  0
 49157  1  0  0  0  0
 50 51  1  0  0  0  0
 50158  1  0  0  0  0
 50159  1  0  0  0  0
 51 52  1  0  0  0  0
 51160  1  0  0  0  0
 51161  1  0  0  0  0
 52 53  1  0  0  0  0
 52162  1  0  0  0  0
 52163  1  0  0  0  0
 53 54  1  0  0  0  0
 53164  1  0  0  0  0
 53165  1  0  0  0  0
 54 55  1  0  0  0  0
 54166  1  0  0  0  0
 54167  1  0  0  0  0
 55 56  1  0  0  0  0
 55168  1  0  0  0  0
 55169  1  0  0  0  0
 56 57  1  0  0  0  0
 56170  1  0  0  0  0
 56171  1  0  0  0  0
 57 58  1  0  0  0  0
 57172  1  0  0  0  0
 57173  1  0  0  0  0
 58 59  1  0  0  0  0
 58174  1  0  0  0  0
 58175  1  0  0  0  0
 59 60  1  0  0  0  0
 59176  1  0  0  0  0
 59177  1  0  0  0  0
 60 61  1  0  0  0  0
 60178  1  0  0  0  0
 60179  1  0  0  0  0
 61 62  1  0  0  0  0
 61180  1  0  0  0  0
 61181  1  0  0  0  0
 62 63  1  0  0  0  0
 62182  1  0  0  0  0
 62183  1  0  0  0  0
 63 64  1  0  0  0  0
 63184  1  0  0  0  0
 63185  1  0  0  0  0
 64 65  1  0  0  0  0
 64186  1  0  0  0  0
 64187  1  0  0  0  0
 65 66  1  0  0  0  0
 65188  1  0  0  0  0
 65189  1  0  0  0  0
 66 67  1  0  0  0  0
 66190  1  0  0  0  0
 66191  1  0  0  0  0
 67 68  1  0  0  0  0
 67192  1  0  0  0  0
 67193  1  0  0  0  0
 68 69  1  0  0  0  0
 68194  1  0  0  0  0
 68195  1  0  0  0  0
 69 70  1  0  0  0  0
 69196  1  0  0  0  0
 69197  1  0  0  0  0
 70 71  1  0  0  0  0
 70198  1  0  0  0  0
 70199  1  0  0  0  0
 71 72  1  0  0  0  0
 71200  1  0  0  0  0
 71201  1  0  0  0  0
 72 73  1  0  0  0  0
 72202  1  0  0  0  0
 72203  1  0  0  0  0
 73 74  1  0  0  0  0
 73204  1  0  0  0  0
 73205  1  0  0  0  0
 74 75  1  0  0  0  0
 74206  1  0  0  0  0
 74207  1  0  0  0  0
 75 76  1  0  0  0  0
 75208  1  0  0  0  0
 75209  1  0  0  0  0
 76 77  1  0  0  0  0
 76210  1  0  0  0  0
 76211  1  0  0  0  0
 77 78  1  0  0  0  0
 77212  1  0  0  0  0
 77213  1  0  0  0  0
 78 79  1  0  0  0  0
 78214  1  0  0  0  0
 78215  1  0  0  0  0
 79 80  1  0  0  0  0
 79216  1  0  0  0  0
 79217  1  0  0  0  0
 80218  1  0  0  0  0
 80219  1  0  0  0  0
 80220  1  0  0  0  0
M  END
$$$$
