
 OpenBabel04232216513D

 92 92  0  0  1  0  0  0  0  0999 V2000
    3.3887    0.9444    0.5712 C   0  0  0  0  0  0  0  0  0  0  0  0
    2.6291   -0.3590    0.3450 C   0  0  0  0  0  0  0  0  0  0  0  0
    3.1760   -1.0836   -0.8844 C   0  0  3  0  0  0  0  0  0  0  0  0
    4.6426   -1.5552   -0.8276 C   0  0  0  0  0  0  0  0  0  0  0  0
    4.1878   -2.8825   -1.4281 C   0  0  0  0  0  0  0  0  0  0  0  0
    2.8418   -2.5193   -1.0133 C   0  0  3  0  0  3  0  0  0  0  0  0
    1.7038   -2.9911   -1.7899 C   0  0  0  0  0  0  0  0  0  0  0  0
    0.6122   -2.4671   -1.1041 O   0  0  0  0  0  0  0  0  0  0  0  0
   -0.4573   -2.9074   -1.9158 O   0  0  0  0  0  0  0  0  0  0  0  0
   -1.6390   -2.4990   -1.2938 O   0  0  0  0  0  0  0  0  0  0  0  0
   -2.6859   -2.9378   -2.0974 O   0  0  0  0  0  0  0  0  0  0  0  0
   -3.8400   -2.4682   -1.5404 O   0  0  0  0  0  0  0  0  0  0  0  0
   -4.8886   -2.9480   -2.3261 O   0  0  0  0  0  0  0  0  0  0  0  0
   -6.0487   -2.5044   -1.7268 O   0  0  0  0  0  0  0  0  0  0  0  0
   -7.0896   -2.9276   -2.5186 O   0  0  0  0  0  0  0  0  0  0  0  0
   -8.2363   -2.4871   -1.9270 O   0  0  0  0  0  0  0  0  0  0  0  0
   -9.2618   -2.9604   -2.7111 O   0  0  0  0  0  0  0  0  0  0  0  0
  -10.4144   -2.4735   -2.1651 O   0  0  0  0  0  0  0  0  0  0  0  0
  -11.4207   -2.9466   -2.9543 O   0  0  0  0  0  0  0  0  0  0  0  0
  -12.5884   -2.5379   -2.3376 O   0  0  0  0  0  0  0  0  0  0  0  0
  -13.5959   -2.9628   -3.1553 O   0  0  0  0  0  0  0  0  0  0  0  0
  -14.7521   -2.5046   -2.5697 O   0  0  0  0  0  0  0  0  0  0  0  0
  -15.7635   -2.9904   -3.3500 O   0  0  0  0  0  0  0  0  0  0  0  0
  -16.9091   -2.5218   -2.7738 O   0  0  0  0  0  0  0  0  0  0  0  0
  -17.9196   -2.9729   -3.5779 O   0  0  0  0  0  0  0  0  0  0  0  0
  -19.0663   -2.5285   -2.9774 O   0  0  0  0  0  0  0  0  0  0  0  0
  -20.0744   -3.0014   -3.7688 O   0  0  0  0  0  0  0  0  0  0  0  0
  -21.2160   -2.5271   -3.1896 O   0  0  0  0  0  0  0  0  0  0  0  0
  -22.2224   -2.9892   -3.9862 O   0  0  0  0  0  0  0  0  0  0  0  0
  -23.3647   -2.5394   -3.3926 O   0  0  0  0  0  0  0  0  0  0  0  0
  -24.3705   -2.9966   -4.1928 O   0  0  0  0  0  0  0  0  0  0  0  0
  -25.5114   -2.5315   -3.6086 O   0  0  0  0  0  0  0  0  0  0  0  0
  -26.5173   -2.9995   -4.4015 O   0  0  0  0  0  0  0  0  0  0  0  0
  -27.6589   -2.5471   -3.8088 O   0  0  0  0  0  0  0  0  0  0  0  0
  -28.6636   -3.0032   -4.6097 O   0  0  0  0  0  0  0  0  0  0  0  0
  -29.8041   -2.5386   -4.0250 O   0  0  0  0  0  0  0  0  0  0  0  0
  -30.8094   -3.0069   -4.8179 O   0  0  0  0  0  0  0  0  0  0  0  0
  -31.9506   -2.5544   -4.2253 O   0  0  0  0  0  0  0  0  0  0  0  0
  -32.9550   -3.0105   -5.0262 O   0  0  0  0  0  0  0  0  0  0  0  0
  -34.0954   -2.5459   -4.4415 O   0  0  0  0  0  0  0  0  0  0  0  0
  -35.1005   -3.0141   -5.2344 O   0  0  0  0  0  0  0  0  0  0  0  0
  -36.2417   -2.5616   -4.6417 O   0  0  0  0  0  0  0  0  0  0  0  0
  -37.2461   -3.0177   -5.4426 O   0  0  0  0  0  0  0  0  0  0  0  0
  -38.3866   -2.5532   -4.8580 O   0  0  0  0  0  0  0  0  0  0  0  0
  -39.3920   -3.0217   -5.6507 O   0  0  0  0  0  0  0  0  0  0  0  0
  -40.5333   -2.5689   -5.0583 O   0  0  0  0  0  0  0  0  0  0  0  0
  -41.5377   -3.0238   -5.8600 O   0  0  0  0  0  0  0  0  0  0  0  0
  -42.6788   -2.5608   -5.2743 O   0  0  0  0  0  0  0  0  0  0  0  0
  -43.6844   -3.0319   -6.0653 O   0  0  0  0  0  0  0  0  0  0  0  0
  -44.8256   -2.5714   -5.4779 O   0  0  0  0  0  0  0  0  0  0  0  0
  -45.8308   -3.0318   -6.2757 O   0  0  0  0  0  0  0  0  0  0  0  0
  -46.9729   -2.5818   -5.6812 O   0  0  0  0  0  0  0  0  0  0  0  0
  -47.9767   -3.0284   -6.4879 O   0  0  0  0  0  0  0  0  0  0  0  0
  -49.1189   -2.5709   -5.9013 O   0  0  0  0  0  0  0  0  0  0  0  0
  -50.1252   -3.0586   -6.6827 O   0  0  0  0  0  0  0  0  0  0  0  0
  -51.2656   -2.5788   -6.1096 O   0  0  0  0  0  0  0  0  0  0  0  0
  -52.2717   -3.0287   -6.9123 O   0  0  0  0  0  0  0  0  0  0  0  0
  -53.4139   -2.5930   -6.3066 O   0  0  0  0  0  0  0  0  0  0  0  0
  -54.4223   -3.0510   -7.1025 O   0  0  0  0  0  0  0  0  0  0  0  0
  -55.5613   -2.5551   -6.5384 O   0  0  0  0  0  0  0  0  0  0  0  0
  -56.5696   -3.0343   -7.3234 O   0  0  0  0  0  0  0  0  0  0  0  0
  -57.7168   -2.6182   -6.7094 O   0  0  0  0  0  0  0  0  0  0  0  0
  -58.7231   -3.0578   -7.5225 O   0  0  0  0  0  0  0  0  0  0  0  0
  -59.8671   -2.5606   -6.9652 O   0  0  0  0  0  0  0  0  0  0  0  0
  -60.8802   -3.0454   -7.7445 O   0  0  0  0  0  0  0  0  0  0  0  0
  -62.0324   -2.6304   -7.1347 O   0  0  0  0  0  0  0  0  0  0  0  0
  -63.0465   -3.0629   -7.9470 O   0  0  0  0  0  0  0  0  0  0  0  0
  -64.2024   -2.5831   -7.3798 O   0  0  0  0  0  0  0  0  0  0  0  0
  -65.2270   -3.0391   -8.1815 O   0  0  0  0  0  0  0  0  0  0  0  0
  -66.3839   -2.6236   -7.5659 O   0  0  0  0  0  0  0  0  0  0  0  0
  -67.4245   -3.1009   -8.3455 O   0  0  0  0  0  0  0  0  0  0  0  0
  -68.5921   -2.5966   -7.7858 O   0  0  0  0  0  0  0  0  0  0  0  0
  -69.6451   -3.0178   -8.5849 O   0  0  0  0  0  0  0  0  0  0  0  0
  -70.8300   -2.6279   -7.9766 O   0  0  0  0  0  0  0  0  0  0  0  0
  -71.8843   -3.1037   -8.7669 O   0  0  0  0  0  0  0  0  0  0  0  0
  -73.0869   -2.5468   -8.3141 O   0  0  0  0  0  0  0  0  0  0  0  0
  -74.1740   -3.0748   -9.0855 O   0  0  0  0  0  0  0  0  0  0  0  0
  -75.4044   -2.6692   -8.4769 O   0  0  0  0  0  0  0  0  0  0  0  0
  -75.4919   -3.2092   -7.1380 O   0  0  0  0  0  0  0  0  0  0  0  0
    3.0661    1.4229    1.5012 H   0  0  0  0  0  0  0  0  0  0  0  0
    3.2215    1.6489   -0.2505 H   0  0  0  0  0  0  0  0  0  0  0  0
    4.4665    0.7673    0.6429 H   0  0  0  0  0  0  0  0  0  0  0  0
    1.5641   -0.1222    0.2147 H   0  0  0  0  0  0  0  0  0  0  0  0
    2.7120   -0.9810    1.2432 H   0  0  0  0  0  0  0  0  0  0  0  0
    2.9158   -0.5371   -1.8032 H   0  0  0  0  0  0  0  0  0  0  0  0
    5.0317   -1.6672    0.1901 H   0  0  0  0  0  0  0  0  0  0  0  0
    5.3371   -0.9793   -1.4358 H   0  0  0  0  0  0  0  0  0  0  0  0
    4.5520   -3.7953   -0.9529 H   0  0  0  0  0  0  0  0  0  0  0  0
    4.2712   -2.9689   -2.5173 H   0  0  0  0  0  0  0  0  0  0  0  0
    1.6378   -4.0833   -1.8051 H   0  0  0  0  0  0  0  0  0  0  0  0
    1.7221   -2.6167   -2.8196 H   0  0  0  0  0  0  0  0  0  0  0  0
  -76.3298   -2.7653   -6.9207 H   0  0  0  0  0  0  0  0  0  0  0  0
  1  2  1  0  0  0  0
  1 80  1  0  0  0  0
  1 81  1  0  0  0  0
  1 82  1  0  0  0  0
  2  3  1  0  0  0  0
  2 83  1  0  0  0  0
  2 84  1  0  0  0  0
  3  4  1  0  0  0  0
  3  6  1  0  0  0  0
  3 85  1  0  0  0  0
  4  5  1  0  0  0  0
  4 86  1  0  0  0  0
  4 87  1  0  0  0  0
  5  6  1  0  0  0  0
  5 88  1  0  0  0  0
  5 89  1  0  0  0  0
  6  7  1  0  0  0  0
  7  8  1  0  0  0  0
  7 90  1  0  0  0  0
  7 91  1  0  0  0  0
  8  9  1  0  0  0  0
  9 10  1  0  0  0  0
 10 11  1  0  0  0  0
 11 12  1  0  0  0  0
 12 13  1  0  0  0  0
 13 14  1  0  0  0  0
 14 15  1  0  0  0  0
 15 16  1  0  0  0  0
 16 17  1  0  0  0  0
 17 18  1  0  0  0  0
 18 19  1  0  0  0  0
 19 20  1  0  0  0  0
 20 21  1  0  0  0  0
 21 22  1  0  0  0  0
 22 23  1  0  0  0  0
 23 24  1  0  0  0  0
 24 25  1  0  0  0  0
 25 26  1  0  0  0  0
 26 27  1  0  0  0  0
 27 28  1  0  0  0  0
 28 29  1  0  0  0  0
 29 30  1  0  0  0  0
 30 31  1  0  0  0  0
 31 32  1  0  0  0  0
 32 33  1  0  0  0  0
 33 34  1  0  0  0  0
 34 35  1  0  0  0  0
 35 36  1  0  0  0  0
 36 37  1  0  0  0  0
 37 38  1  0  0  0  0
 38 39  1  0  0  0  0
 39 40  1  0  0  0  0
 40 41  1  0  0  0  0
 41 42  1  0  0  0  0
 42 43  1  0  0  0  0
 43 44  1  0  0  0  0
 44 45  1  0  0  0  0
 45 46  1  0  0  0  0
 46 47  1  0  0  0  0
 47 48  1  0  0  0  0
 48 49  1  0  0  0  0
 49 50  1  0  0  0  0
 50 51  1  0  0  0  0
 51 52  1  0  0  0  0
 52 53  1  0  0  0  0
 53 54  1  0  0  0  0
 54 55  1  0  0  0  0
 55 56  1  0  0  0  0
 56 57  1  0  0  0  0
 57 58  1  0  0  0  0
 58 59  1  0  0  0  0
 59 60  1  0  0  0  0
 60 61  1  0  0  0  0
 61 62  1  0  0  0  0
 62 63  1  0  0  0  0
 63 64  1  0  0  0  0
 64 65  1  0  0  0  0
 65 66  1  0  0  0  0
 66 67  1  0  0  0  0
 67 68  1  0  0  0  0
 68 69  1  0  0  0  0
 69 70  1  0  0  0  0
 70 71  1  0  0  0  0
 71 72  1  0  0  0  0
 72 73  1  0  0  0  0
 73 74  1  0  0  0  0
 74 75  1  0  0  0  0
 75 76  1  0  0  0  0
 76 77  1  0  0  0  0
 77 78  1  0  0  0  0
 78 79  1  0  0  0  0
 79 92  1  0  0  0  0
M  END
$$$$
