
 OpenBabel04232216433D

215214  0  0  1  0  0  0  0  0999 V2000
    3.0053   -0.1033    1.4400 C   0  0  0  0  0  0  0  0  0  0  0  0
    2.5597   -0.0030   -0.0214 C   0  0  3  0  0  0  0  0  0  0  0  0
    1.0312    0.0137   -0.0463 C   0  0  0  0  0  0  0  0  0  0  0  0
    0.5109    0.1523   -1.4599 C   0  0  0  0  0  0  0  0  0  0  0  0
   -0.9580    0.5258   -1.4638 C   0  0  0  0  0  0  0  0  0  0  0  0
   -1.4624    0.9437   -2.8206 C   0  0  0  0  0  0  0  0  0  0  0  0
   -3.4247    0.6593   -2.4795 S   0  0  0  0  0  0  0  0  0  0  0  0
   -4.1599    2.2952   -1.5873 S   0  0  0  0  0  0  0  0  0  0  0  0
   -3.4647    3.7204   -2.8677 S   0  0  0  0  0  0  0  0  0  0  0  0
   -4.1799    3.2695   -4.7432 S   0  0  0  0  0  0  0  0  0  0  0  0
   -5.9716    3.4018   -4.5289 C   0  0  0  0  0  0  0  0  0  0  0  0
   -6.9032    3.3586   -6.0979 S   0  0  0  0  0  0  0  0  0  0  0  0
   -6.2944    1.6196   -7.0286 S   0  0  0  0  0  0  0  0  0  0  0  0
   -6.9112    0.3076   -5.9342 C   0  0  0  0  0  0  0  0  0  0  0  0
   -6.5336   -1.3819   -6.5198 S   0  0  0  0  0  0  0  0  0  0  0  0
   -4.4996   -1.4070   -6.8073 S   0  0  0  0  0  0  0  0  0  0  0  0
   -3.8035   -1.2734   -5.1332 C   0  0  0  0  0  0  0  0  0  0  0  0
   -1.9896   -1.6610   -5.2834 S   0  0  0  0  0  0  0  0  0  0  0  0
   -1.5192   -1.7359   -3.5237 C   0  0  0  0  0  0  0  0  0  0  0  0
   -2.0342   -2.6484   -2.4473 C   0  0  0  0  0  0  0  0  0  0  0  0
   -1.2938   -2.5002   -0.7752 S   0  0  0  0  0  0  0  0  0  0  0  0
   -2.3591   -3.5071    0.2213 C   0  0  0  0  0  0  0  0  0  0  0  0
   -4.1388   -3.2875    0.0371 S   0  0  0  0  0  0  0  0  0  0  0  0
    3.1468    1.2460   -0.7133 C   0  0  0  0  0  0  0  0  0  0  0  0
    4.9571    1.1235   -0.7270 S   0  0  0  0  0  0  0  0  0  0  0  0
    5.3915    2.6802   -1.5284 C   0  0  0  0  0  0  0  0  0  0  0  0
    6.9010    2.7050   -1.5391 C   0  0  0  0  0  0  0  0  0  0  0  0
    7.5147    4.0144   -2.2896 C   0  0  0  0  0  0  0  0  0  0  0  0
    8.9297    3.9680   -2.2156 C   0  0  0  0  0  0  0  0  0  0  0  0
    9.4493    5.2264   -2.9018 C   0  0  0  0  0  0  0  0  0  0  0  0
   10.9995    5.2378   -2.8957 C   0  0  0  0  0  0  0  0  0  0  0  0
   11.4568    6.5113   -3.5892 C   0  0  0  0  0  0  0  0  0  0  0  0
   13.0003    6.4999   -3.5859 C   0  0  0  0  0  0  0  0  0  0  0  0
   13.5505    7.7378   -4.2784 C   0  0  0  0  0  0  0  0  0  0  0  0
   15.0683    7.7309   -4.2812 C   0  0  0  0  0  0  0  0  0  0  0  0
   15.5854    8.9885   -4.9707 C   0  0  0  0  0  0  0  0  0  0  0  0
   17.1120    8.9895   -4.9709 C   0  0  0  0  0  0  0  0  0  0  0  0
   17.6118   10.2483   -5.6589 C   0  0  0  0  0  0  0  0  0  0  0  0
   19.1307   10.2523   -5.6638 C   0  0  0  0  0  0  0  0  0  0  0  0
   19.6407   11.5055   -6.3486 C   0  0  0  0  0  0  0  0  0  0  0  0
   21.1573   11.5085   -6.3525 C   0  0  0  0  0  0  0  0  0  0  0  0
   21.6674   12.7627   -7.0356 C   0  0  0  0  0  0  0  0  0  0  0  0
   23.1840   12.7668   -7.0378 C   0  0  0  0  0  0  0  0  0  0  0  0
   23.6940   14.0221   -7.7192 C   0  0  0  0  0  0  0  0  0  0  0  0
   25.2106   14.0264   -7.7214 C   0  0  0  0  0  0  0  0  0  0  0  0
   25.7206   15.2826   -8.4010 C   0  0  0  0  0  0  0  0  0  0  0  0
   27.2373   15.2878   -8.4016 C   0  0  0  0  0  0  0  0  0  0  0  0
   27.7473   16.5431   -9.0829 C   0  0  0  0  0  0  0  0  0  0  0  0
   29.2639   16.5473   -9.0851 C   0  0  0  0  0  0  0  0  0  0  0  0
   29.7740   17.8026   -9.7665 C   0  0  0  0  0  0  0  0  0  0  0  0
   31.2906   17.8077   -9.7670 C   0  0  0  0  0  0  0  0  0  0  0  0
   31.8007   19.0621  -10.4501 C   0  0  0  0  0  0  0  0  0  0  0  0
   33.3173   19.0682  -10.4489 C   0  0  0  0  0  0  0  0  0  0  0  0
   33.8273   20.3225  -11.1320 C   0  0  0  0  0  0  0  0  0  0  0  0
   35.3439   20.3287  -11.1307 C   0  0  0  0  0  0  0  0  0  0  0  0
   35.8540   21.5830  -11.8138 C   0  0  0  0  0  0  0  0  0  0  0  0
   37.3706   21.5901  -11.8108 C   0  0  0  0  0  0  0  0  0  0  0  0
   37.8806   22.8444  -12.4940 C   0  0  0  0  0  0  0  0  0  0  0  0
   39.3972   22.8515  -12.4909 C   0  0  0  0  0  0  0  0  0  0  0  0
   39.9073   24.1049  -13.1758 C   0  0  0  0  0  0  0  0  0  0  0  0
   41.4239   24.1118  -13.1726 C   0  0  0  0  0  0  0  0  0  0  0  0
   41.9341   25.3659  -13.8561 C   0  0  0  0  0  0  0  0  0  0  0  0
   43.4507   25.3742  -13.8511 C   0  0  0  0  0  0  0  0  0  0  0  0
   43.9606   26.6277  -14.5359 C   0  0  0  0  0  0  0  0  0  0  0  0
   45.4772   26.6367  -14.5295 C   0  0  0  0  0  0  0  0  0  0  0  0
   45.9873   27.8892  -15.2161 C   0  0  0  0  0  0  0  0  0  0  0  0
   47.5039   27.8973  -15.2112 C   0  0  0  0  0  0  0  0  0  0  0  0
   48.0140   29.1506  -15.8962 C   0  0  0  0  0  0  0  0  0  0  0  0
   49.5308   29.1588  -15.8915 C   0  0  0  0  0  0  0  0  0  0  0  0
   50.0411   30.4123  -16.5764 C   0  0  0  0  0  0  0  0  0  0  0  0
   51.5579   30.4206  -16.5717 C   0  0  0  0  0  0  0  0  0  0  0  0
   52.0690   31.6743  -17.2568 C   0  0  0  0  0  0  0  0  0  0  0  0
   53.5864   31.6831  -17.2524 C   0  0  0  0  0  0  0  0  0  0  0  0
   54.0984   32.9362  -17.9394 C   0  0  0  0  0  0  0  0  0  0  0  0
   55.6171   32.9478  -17.9365 C   0  0  0  0  0  0  0  0  0  0  0  0
   56.1311   34.2022  -18.6243 C   0  0  0  0  0  0  0  0  0  0  0  0
   57.6518   34.2174  -18.6212 C   0  0  0  0  0  0  0  0  0  0  0  0
   58.1780   35.4695  -19.3098 C   0  0  0  0  0  0  0  0  0  0  0  0
   59.6943   35.4811  -19.3046 C   0  0  0  0  0  0  0  0  0  0  0  0
    2.6439   -1.0288    1.8982 H   0  0  0  0  0  0  0  0  0  0  0  0
    2.6164    0.7449    2.0134 H   0  0  0  0  0  0  0  0  0  0  0  0
    4.0936   -0.1067    1.5340 H   0  0  0  0  0  0  0  0  0  0  0  0
    2.9077   -0.9027   -0.5530 H   0  0  0  0  0  0  0  0  0  0  0  0
    0.6299    0.8353    0.5479 H   0  0  0  0  0  0  0  0  0  0  0  0
    0.6676   -0.9151    0.4183 H   0  0  0  0  0  0  0  0  0  0  0  0
    0.8143   -0.7554   -2.0023 H   0  0  0  0  0  0  0  0  0  0  0  0
    0.9753    0.9726   -1.9884 H   0  0  0  0  0  0  0  0  0  0  0  0
   -1.2359    1.2830   -0.7382 H   0  0  0  0  0  0  0  0  0  0  0  0
   -1.5706   -0.2817   -1.0920 H   0  0  0  0  0  0  0  0  0  0  0  0
   -0.9188    0.3597   -3.5916 H   0  0  0  0  0  0  0  0  0  0  0  0
   -1.2370    1.8998   -3.2809 H   0  0  0  0  0  0  0  0  0  0  0  0
   -6.2227    4.3354   -4.0116 H   0  0  0  0  0  0  0  0  0  0  0  0
   -6.3333    2.5733   -3.9158 H   0  0  0  0  0  0  0  0  0  0  0  0
   -7.9984    0.3732   -5.8327 H   0  0  0  0  0  0  0  0  0  0  0  0
   -6.4677    0.4056   -4.9404 H   0  0  0  0  0  0  0  0  0  0  0  0
   -4.2359   -1.9963   -4.4352 H   0  0  0  0  0  0  0  0  0  0  0  0
   -4.0465   -0.2543   -4.7893 H   0  0  0  0  0  0  0  0  0  0  0  0
   -2.1499   -0.9096   -3.3442 H   0  0  0  0  0  0  0  0  0  0  0  0
   -0.4656   -1.4910   -3.3642 H   0  0  0  0  0  0  0  0  0  0  0  0
   -1.6866   -3.5882   -2.7949 H   0  0  0  0  0  0  0  0  0  0  0  0
   -3.1096   -2.4770   -2.3784 H   0  0  0  0  0  0  0  0  0  0  0  0
   -2.1012   -3.3487    1.2768 H   0  0  0  0  0  0  0  0  0  0  0  0
   -2.0341   -4.4916   -0.1017 H   0  0  0  0  0  0  0  0  0  0  0  0
   -4.2378   -2.0312    0.4997 H   0  0  0  0  0  0  0  0  0  0  0  0
    2.8031    2.1511   -0.2001 H   0  0  0  0  0  0  0  0  0  0  0  0
    2.8359    1.3100   -1.7588 H   0  0  0  0  0  0  0  0  0  0  0  0
    4.9967    3.5284   -0.9674 H   0  0  0  0  0  0  0  0  0  0  0  0
    4.9972    2.7080   -2.5476 H   0  0  0  0  0  0  0  0  0  0  0  0
    7.3079    1.8378   -2.0706 H   0  0  0  0  0  0  0  0  0  0  0  0
    7.3018    2.6830   -0.5233 H   0  0  0  0  0  0  0  0  0  0  0  0
    6.9646    4.8977   -1.7900 H   0  0  0  0  0  0  0  0  0  0  0  0
    7.0809    4.0184   -3.2723 H   0  0  0  0  0  0  0  0  0  0  0  0
    9.3439    3.0665   -2.7375 H   0  0  0  0  0  0  0  0  0  0  0  0
    9.2775    3.9508   -1.1988 H   0  0  0  0  0  0  0  0  0  0  0  0
    9.1067    6.0992   -2.3838 H   0  0  0  0  0  0  0  0  0  0  0  0
    9.1130    5.2449   -3.9253 H   0  0  0  0  0  0  0  0  0  0  0  0
   11.3342    4.3583   -3.4425 H   0  0  0  0  0  0  0  0  0  0  0  0
   11.3901    5.1758   -1.8803 H   0  0  0  0  0  0  0  0  0  0  0  0
   11.0213    7.3678   -3.1075 H   0  0  0  0  0  0  0  0  0  0  0  0
   11.0853    6.5838   -4.6311 H   0  0  0  0  0  0  0  0  0  0  0  0
   13.3704    5.6050   -4.1065 H   0  0  0  0  0  0  0  0  0  0  0  0
   13.3872    6.4347   -2.5600 H   0  0  0  0  0  0  0  0  0  0  0  0
   13.1831    8.6303   -3.7616 H   0  0  0  0  0  0  0  0  0  0  0  0
   13.1817    7.7731   -5.3085 H   0  0  0  0  0  0  0  0  0  0  0  0
   15.4490    6.8437   -4.8045 H   0  0  0  0  0  0  0  0  0  0  0  0
   15.4523    7.6917   -3.2541 H   0  0  0  0  0  0  0  0  0  0  0  0
   15.2129    9.8729   -4.4473 H   0  0  0  0  0  0  0  0  0  0  0  0
   15.2117    9.0278   -5.9967 H   0  0  0  0  0  0  0  0  0  0  0  0
   17.4818    8.1053   -5.4944 H   0  0  0  0  0  0  0  0  0  0  0  0
   17.4819    8.9522   -3.9449 H   0  0  0  0  0  0  0  0  0  0  0  0
   17.2390   11.1383   -5.1387 H   0  0  0  0  0  0  0  0  0  0  0  0
   17.2368   10.2922   -6.6887 H   0  0  0  0  0  0  0  0  0  0  0  0
   19.5054    9.3625   -6.1847 H   0  0  0  0  0  0  0  0  0  0  0  0
   19.5076   10.2086   -4.6345 H   0  0  0  0  0  0  0  0  0  0  0  0
   19.2660   12.3953   -5.8276 H   0  0  0  0  0  0  0  0  0  0  0  0
   19.2638   11.5493   -7.3779 H   0  0  0  0  0  0  0  0  0  0  0  0
   21.5319   10.6193   -6.8745 H   0  0  0  0  0  0  0  0  0  0  0  0
   21.5341   11.4634   -5.3232 H   0  0  0  0  0  0  0  0  0  0  0  0
   21.2916   13.6517   -6.5142 H   0  0  0  0  0  0  0  0  0  0  0  0
   21.2915   12.8071   -8.0652 H   0  0  0  0  0  0  0  0  0  0  0  0
   23.5597   11.8784   -7.5603 H   0  0  0  0  0  0  0  0  0  0  0  0
   23.5598   12.7211   -6.0082 H   0  0  0  0  0  0  0  0  0  0  0  0
   23.3182   14.9104   -7.1965 H   0  0  0  0  0  0  0  0  0  0  0  0
   23.3182   14.0681   -8.7488 H   0  0  0  0  0  0  0  0  0  0  0  0
   25.5864   13.1388   -8.2451 H   0  0  0  0  0  0  0  0  0  0  0  0
   25.5864   13.9792   -6.6918 H   0  0  0  0  0  0  0  0  0  0  0  0
   25.3438   16.1703   -7.8781 H   0  0  0  0  0  0  0  0  0  0  0  0
   25.3459   15.3291   -9.4310 H   0  0  0  0  0  0  0  0  0  0  0  0
   27.6142   14.3994   -8.9233 H   0  0  0  0  0  0  0  0  0  0  0  0
   27.6119   15.2426   -7.3715 H   0  0  0  0  0  0  0  0  0  0  0  0
   27.3714   17.4314   -8.5603 H   0  0  0  0  0  0  0  0  0  0  0  0
   27.3716   16.5890  -10.1126 H   0  0  0  0  0  0  0  0  0  0  0  0
   29.6398   15.6590   -9.6076 H   0  0  0  0  0  0  0  0  0  0  0  0
   29.6397   16.5015   -8.0555 H   0  0  0  0  0  0  0  0  0  0  0  0
   29.3971   18.6910   -9.2448 H   0  0  0  0  0  0  0  0  0  0  0  0
   29.3993   17.8476  -10.7966 H   0  0  0  0  0  0  0  0  0  0  0  0
   31.6677   16.9187  -10.2875 H   0  0  0  0  0  0  0  0  0  0  0  0
   31.6651   17.7640   -8.7369 H   0  0  0  0  0  0  0  0  0  0  0  0
   31.4226   19.9512   -9.9305 H   0  0  0  0  0  0  0  0  0  0  0  0
   31.4272   19.1050  -11.4807 H   0  0  0  0  0  0  0  0  0  0  0  0
   33.6954   18.1791  -10.9685 H   0  0  0  0  0  0  0  0  0  0  0  0
   33.6907   19.0253   -9.4183 H   0  0  0  0  0  0  0  0  0  0  0  0
   33.4492   21.2116  -10.6124 H   0  0  0  0  0  0  0  0  0  0  0  0
   33.4539   20.3655  -12.1626 H   0  0  0  0  0  0  0  0  0  0  0  0
   35.7222   19.4396  -11.6503 H   0  0  0  0  0  0  0  0  0  0  0  0
   35.7173   20.2857  -10.1001 H   0  0  0  0  0  0  0  0  0  0  0  0
   35.4747   22.4722  -11.2951 H   0  0  0  0  0  0  0  0  0  0  0  0
   35.4817   21.6252  -12.8448 H   0  0  0  0  0  0  0  0  0  0  0  0
   37.7499   20.7010  -12.3295 H   0  0  0  0  0  0  0  0  0  0  0  0
   37.7429   21.5479  -10.7798 H   0  0  0  0  0  0  0  0  0  0  0  0
   37.5013   23.7335  -11.9753 H   0  0  0  0  0  0  0  0  0  0  0  0
   37.5083   22.8865  -13.5250 H   0  0  0  0  0  0  0  0  0  0  0  0
   39.7766   21.9617  -13.0084 H   0  0  0  0  0  0  0  0  0  0  0  0
   39.7694   22.8107  -11.4598 H   0  0  0  0  0  0  0  0  0  0  0  0
   39.5280   24.9947  -12.6583 H   0  0  0  0  0  0  0  0  0  0  0  0
   39.5351   24.1458  -14.2069 H   0  0  0  0  0  0  0  0  0  0  0  0
   41.8032   23.2226  -13.6913 H   0  0  0  0  0  0  0  0  0  0  0  0
   41.7961   24.0698  -12.1415 H   0  0  0  0  0  0  0  0  0  0  0  0
   41.5538   26.2550  -13.3382 H   0  0  0  0  0  0  0  0  0  0  0  0
   41.5629   25.4073  -14.8875 H   0  0  0  0  0  0  0  0  0  0  0  0
   43.8314   24.4844  -14.3677 H   0  0  0  0  0  0  0  0  0  0  0  0
   43.8217   25.3342  -12.8195 H   0  0  0  0  0  0  0  0  0  0  0  0
   43.5790   27.5175  -14.0201 H   0  0  0  0  0  0  0  0  0  0  0  0
   43.5906   26.6669  -15.5678 H   0  0  0  0  0  0  0  0  0  0  0  0
   45.8588   25.7462  -15.0440 H   0  0  0  0  0  0  0  0  0  0  0  0
   45.8471   26.5989  -13.4974 H   0  0  0  0  0  0  0  0  0  0  0  0
   45.6067   28.7797  -14.7007 H   0  0  0  0  0  0  0  0  0  0  0  0
   45.6163   27.9278  -16.2477 H   0  0  0  0  0  0  0  0  0  0  0  0
   47.8843   27.0074  -15.7278 H   0  0  0  0  0  0  0  0  0  0  0  0
   47.8750   27.8573  -14.1797 H   0  0  0  0  0  0  0  0  0  0  0  0
   47.6335   30.0404  -15.3796 H   0  0  0  0  0  0  0  0  0  0  0  0
   47.6429   29.1906  -16.9278 H   0  0  0  0  0  0  0  0  0  0  0  0
   49.9112   28.2689  -16.4080 H   0  0  0  0  0  0  0  0  0  0  0  0
   49.9017   29.1187  -14.8599 H   0  0  0  0  0  0  0  0  0  0  0  0
   49.6604   31.3020  -16.0598 H   0  0  0  0  0  0  0  0  0  0  0  0
   49.6698   30.4522  -17.6079 H   0  0  0  0  0  0  0  0  0  0  0  0
   51.9381   29.5307  -17.0882 H   0  0  0  0  0  0  0  0  0  0  0  0
   51.9287   30.3805  -15.5401 H   0  0  0  0  0  0  0  0  0  0  0  0
   51.6880   32.5638  -16.7401 H   0  0  0  0  0  0  0  0  0  0  0  0
   51.6973   31.7139  -18.2882 H   0  0  0  0  0  0  0  0  0  0  0  0
   53.9661   30.7921  -17.7675 H   0  0  0  0  0  0  0  0  0  0  0  0
   53.9566   31.6440  -16.2206 H   0  0  0  0  0  0  0  0  0  0  0  0
   53.7166   33.8259  -17.4237 H   0  0  0  0  0  0  0  0  0  0  0  0
   53.7261   32.9740  -18.9706 H   0  0  0  0  0  0  0  0  0  0  0  0
   55.9963   32.0562  -18.4510 H   0  0  0  0  0  0  0  0  0  0  0  0
   55.9868   32.9080  -16.9044 H   0  0  0  0  0  0  0  0  0  0  0  0
   55.7469   35.0910  -18.1090 H   0  0  0  0  0  0  0  0  0  0  0  0
   55.7585   34.2382  -19.6554 H   0  0  0  0  0  0  0  0  0  0  0  0
   58.0302   33.3235  -19.1324 H   0  0  0  0  0  0  0  0  0  0  0  0
   58.0183   34.1779  -17.5879 H   0  0  0  0  0  0  0  0  0  0  0  0
   57.8016   36.3629  -18.7980 H   0  0  0  0  0  0  0  0  0  0  0  0
   57.8134   35.5082  -20.3430 H   0  0  0  0  0  0  0  0  0  0  0  0
   60.0785   35.4661  -18.2796 H   0  0  0  0  0  0  0  0  0  0  0  0
   60.0687   36.3813  -19.7998 H   0  0  0  0  0  0  0  0  0  0  0  0
   60.0903   34.6073  -19.8320 H   0  0  0  0  0  0  0  0  0  0  0  0
  1  2  1  0  0  0  0
  1 80  1  0  0  0  0
  1 81  1  0  0  0  0
  1 82  1  0  0  0  0
  2  3  1  0  0  0  0
  2 24  1  0  0  0  0
  2 83  1  0  0  0  0
  3  4  1  0  0  0  0
  3 84  1  0  0  0  0
  3 85  1  0  0  0  0
  4  5  1  0  0  0  0
  4 86  1  0  0  0  0
  4 87  1  0  0  0  0
  5  6  1  0  0  0  0
  5 88  1  0  0  0  0
  5 89  1  0  0  0  0
  6  7  1  0  0  0  0
  6 90  1  0  0  0  0
  6 91  1  0  0  0  0
  7  8  1  0  0  0  0
  8  9  1  0  0  0  0
  9 10  1  0  0  0  0
 10 11  1  0  0  0  0
 11 12  1  0  0  0  0
 11 92  1  0  0  0  0
 11 93  1  0  0  0  0
 12 13  1  0  0  0  0
 13 14  1  0  0  0  0
 14 15  1  0  0  0  0
 14 94  1  0  0  0  0
 14 95  1  0  0  0  0
 15 16  1  0  0  0  0
 16 17  1  0  0  0  0
 17 18  1  0  0  0  0
 17 96  1  0  0  0  0
 17 97  1  0  0  0  0
 18 19  1  0  0  0  0
 19 20  1  0  0  0  0
 19 98  1  0  0  0  0
 19 99  1  0  0  0  0
 20 21  1  0  0  0  0
 20100  1  0  0  0  0
 20101  1  0  0  0  0
 21 22  1  0  0  0  0
 22 23  1  0  0  0  0
 22102  1  0  0  0  0
 22103  1  0  0  0  0
 23104  1  0  0  0  0
 24 25  1  0  0  0  0
 24105  1  0  0  0  0
 24106  1  0  0  0  0
 25 26  1  0  0  0  0
 26 27  1  0  0  0  0
 26107  1  0  0  0  0
 26108  1  0  0  0  0
 27 28  1  0  0  0  0
 27109  1  0  0  0  0
 27110  1  0  0  0  0
 28 29  1  0  0  0  0
 28111  1  0  0  0  0
 28112  1  0  0  0  0
 29 30  1  0  0  0  0
 29113  1  0  0  0  0
 29114  1  0  0  0  0
 30 31  1  0  0  0  0
 30115  1  0  0  0  0
 30116  1  0  0  0  0
 31 32  1  0  0  0  0
 31117  1  0  0  0  0
 31118  1  0  0  0  0
 32 33  1  0  0  0  0
 32119  1  0  0  0  0
 32120  1  0  0  0  0
 33 34  1  0  0  0  0
 33121  1  0  0  0  0
 33122  1  0  0  0  0
 34 35  1  0  0  0  0
 34123  1  0  0  0  0
 34124  1  0  0  0  0
 35 36  1  0  0  0  0
 35125  1  0  0  0  0
 35126  1  0  0  0  0
 36 37  1  0  0  0  0
 36127  1  0  0  0  0
 36128  1  0  0  0  0
 37 38  1  0  0  0  0
 37129  1  0  0  0  0
 37130  1  0  0  0  0
 38 39  1  0  0  0  0
 38131  1  0  0  0  0
 38132  1  0  0  0  0
 39 40  1  0  0  0  0
 39133  1  0  0  0  0
 39134  1  0  0  0  0
 40 41  1  0  0  0  0
 40135  1  0  0  0  0
 40136  1  0  0  0  0
 41 42  1  0  0  0  0
 41137  1  0  0  0  0
 41138  1  0  0  0  0
 42 43  1  0  0  0  0
 42139  1  0  0  0  0
 42140  1  0  0  0  0
 43 44  1  0  0  0  0
 43141  1  0  0  0  0
 43142  1  0  0  0  0
 44 45  1  0  0  0  0
 44143  1  0  0  0  0
 44144  1  0  0  0  0
 45 46  1  0  0  0  0
 45145  1  0  0  0  0
 45146  1  0  0  0  0
 46 47  1  0  0  0  0
 46147  1  0  0  0  0
 46148  1  0  0  0  0
 47 48  1  0  0  0  0
 47149  1  0  0  0  0
 47150  1  0  0  0  0
 48 49  1  0  0  0  0
 48151  1  0  0  0  0
 48152  1  0  0  0  0
 49 50  1  0  0  0  0
 49153  1  0  0  0  0
 49154  1  0  0  0  0
 50 51  1  0  0  0  0
 50155  1  0  0  0  0
 50156  1  0  0  0  0
 51 52  1  0  0  0  0
 51157  1  0  0  0  0
 51158  1  0  0  0  0
 52 53  1  0  0  0  0
 52159  1  0  0  0  0
 52160  1  0  0  0  0
 53 54  1  0  0  0  0
 53161  1  0  0  0  0
 53162  1  0  0  0  0
 54 55  1  0  0  0  0
 54163  1  0  0  0  0
 54164  1  0  0  0  0
 55 56  1  0  0  0  0
 55165  1  0  0  0  0
 55166  1  0  0  0  0
 56 57  1  0  0  0  0
 56167  1  0  0  0  0
 56168  1  0  0  0  0
 57 58  1  0  0  0  0
 57169  1  0  0  0  0
 57170  1  0  0  0  0
 58 59  1  0  0  0  0
 58171  1  0  0  0  0
 58172  1  0  0  0  0
 59 60  1  0  0  0  0
 59173  1  0  0  0  0
 59174  1  0  0  0  0
 60 61  1  0  0  0  0
 60175  1  0  0  0  0
 60176  1  0  0  0  0
 61 62  1  0  0  0  0
 61177  1  0  0  0  0
 61178  1  0  0  0  0
 62 63  1  0  0  0  0
 62179  1  0  0  0  0
 62180  1  0  0  0  0
 63 64  1  0  0  0  0
 63181  1  0  0  0  0
 63182  1  0  0  0  0
 64 65  1  0  0  0  0
 64183  1  0  0  0  0
 64184  1  0  0  0  0
 65 66  1  0  0  0  0
 65185  1  0  0  0  0
 65186  1  0  0  0  0
 66 67  1  0  0  0  0
 66187  1  0  0  0  0
 66188  1  0  0  0  0
 67 68  1  0  0  0  0
 67189  1  0  0  0  0
 67190  1  0  0  0  0
 68 69  1  0  0  0  0
 68191  1  0  0  0  0
 68192  1  0  0  0  0
 69 70  1  0  0  0  0
 69193  1  0  0  0  0
 69194  1  0  0  0  0
 70 71  1  0  0  0  0
 70195  1  0  0  0  0
 70196  1  0  0  0  0
 71 72  1  0  0  0  0
 71197  1  0  0  0  0
 71198  1  0  0  0  0
 72 73  1  0  0  0  0
 72199  1  0  0  0  0
 72200  1  0  0  0  0
 73 74  1  0  0  0  0
 73201  1  0  0  0  0
 73202  1  0  0  0  0
 74 75  1  0  0  0  0
 74203  1  0  0  0  0
 74204  1  0  0  0  0
 75 76  1  0  0  0  0
 75205  1  0  0  0  0
 75206  1  0  0  0  0
 76 77  1  0  0  0  0
 76207  1  0  0  0  0
 76208  1  0  0  0  0
 77 78  1  0  0  0  0
 77209  1  0  0  0  0
 77210  1  0  0  0  0
 78 79  1  0  0  0  0
 78211  1  0  0  0  0
 78212  1  0  0  0  0
 79213  1  0  0  0  0
 79214  1  0  0  0  0
 79215  1  0  0  0  0
M  END
$$$$
