
 OpenBabel04232216483D

 66 67  0  0  0  0  0  0  0  0999 V2000
    2.5157   -0.0442    0.1386 C   0  0  0  0  0  0  0  0  0  0  0  0
    1.0175   -0.0131    0.1086 C   0  0  0  0  0  0  0  0  0  0  0  0
    0.2735    0.0160    1.2928 C   0  0  0  0  0  0  0  0  0  0  0  0
   -1.1216    0.0236    1.2498 C   0  0  0  0  0  0  0  0  0  0  0  0
   -1.7943   -0.0053    0.0227 C   0  0  0  0  0  0  0  0  0  0  0  0
   -3.2995    0.0062   -0.0190 C   0  0  0  0  0  0  0  0  0  0  0  0
   -3.8406    1.4333   -0.0375 C   0  0  0  0  0  0  0  0  0  0  0  0
   -5.3669    1.4412   -0.0588 C   0  0  0  0  0  0  0  0  0  0  0  0
   -5.8934    2.8722   -0.0822 C   0  0  0  0  0  0  0  0  0  0  0  0
   -7.4199    2.9002   -0.1035 C   0  0  0  0  0  0  0  0  0  0  0  0
   -7.9240    4.3395   -0.1286 C   0  0  0  0  0  0  0  0  0  0  0  0
   -9.4496    4.4108   -0.1440 C   0  0  0  0  0  0  0  0  0  0  0  0
   -9.9358    5.8540   -0.1878 C   0  0  0  0  0  0  0  0  0  0  0  0
   -9.1333    6.7883   -0.2034 O   0  0  0  0  0  0  0  0  0  0  0  0
  -11.3843    6.0460   -0.2548 C   0  0  0  0  0  0  0  0  0  0  0  0
  -12.1612    7.0618   -0.6966 C   0  0  0  0  0  0  0  0  0  0  0  0
  -11.8898    8.4171   -1.3265 C   0  0  0  0  0  0  0  0  0  0  0  0
  -11.1537    8.2499   -2.6585 C   0  0  0  0  0  0  0  0  0  0  0  0
  -10.8783    9.6034   -3.3069 C   0  0  0  0  0  0  0  0  0  0  0  0
  -10.1472    9.4323   -4.6366 C   0  0  0  0  0  0  0  0  0  0  0  0
   -9.8727   10.7871   -5.2832 C   0  0  0  0  0  0  0  0  0  0  0  0
   -9.1413   10.6263   -6.6131 C   0  0  0  0  0  0  0  0  0  0  0  0
   -8.8714   11.9776   -7.2525 C   0  0  0  0  0  0  0  0  0  0  0  0
  -13.4506    6.3239   -0.3191 C   0  0  0  0  0  0  0  0  0  0  0  0
  -12.4907    5.2122    0.1686 C   0  0  0  0  0  0  0  0  0  0  0  0
  -12.5773    4.1210    0.6887 O   0  0  0  0  0  0  0  0  0  0  0  0
   -1.0501   -0.0126   -1.1623 C   0  0  0  0  0  0  0  0  0  0  0  0
    0.3447   -0.0204   -1.1189 C   0  0  0  0  0  0  0  0  0  0  0  0
    2.8982   -0.0166    1.1640 H   0  0  0  0  0  0  0  0  0  0  0  0
    2.9226    0.8199   -0.3961 H   0  0  0  0  0  0  0  0  0  0  0  0
    2.8796   -0.9638   -0.3315 H   0  0  0  0  0  0  0  0  0  0  0  0
    0.7729    0.0311    2.2585 H   0  0  0  0  0  0  0  0  0  0  0  0
   -1.6825    0.0511    2.1812 H   0  0  0  0  0  0  0  0  0  0  0  0
   -3.6921   -0.5372    0.8498 H   0  0  0  0  0  0  0  0  0  0  0  0
   -3.6473   -0.5440   -0.9024 H   0  0  0  0  0  0  0  0  0  0  0  0
   -3.4578    1.9676   -0.9165 H   0  0  0  0  0  0  0  0  0  0  0  0
   -3.4843    1.9815    0.8441 H   0  0  0  0  0  0  0  0  0  0  0  0
   -5.7529    0.9192    0.8254 H   0  0  0  0  0  0  0  0  0  0  0  0
   -5.7289    0.8986   -0.9406 H   0  0  0  0  0  0  0  0  0  0  0  0
   -5.5021    3.3933   -0.9648 H   0  0  0  0  0  0  0  0  0  0  0  0
   -5.5268    3.4133    0.7991 H   0  0  0  0  0  0  0  0  0  0  0  0
   -7.8117    2.3844    0.7812 H   0  0  0  0  0  0  0  0  0  0  0  0
   -7.7872    2.3618   -0.9853 H   0  0  0  0  0  0  0  0  0  0  0  0
   -7.5213    4.8510   -1.0124 H   0  0  0  0  0  0  0  0  0  0  0  0
   -7.5406    4.8770    0.7478 H   0  0  0  0  0  0  0  0  0  0  0  0
   -9.8522    3.9249    0.7505 H   0  0  0  0  0  0  0  0  0  0  0  0
   -9.8331    3.8930   -1.0309 H   0  0  0  0  0  0  0  0  0  0  0  0
  -11.2168    8.9781   -0.6682 H   0  0  0  0  0  0  0  0  0  0  0  0
  -12.8268    8.9647   -1.4645 H   0  0  0  0  0  0  0  0  0  0  0  0
  -11.7524    7.6292   -3.3374 H   0  0  0  0  0  0  0  0  0  0  0  0
  -10.2042    7.7217   -2.5088 H   0  0  0  0  0  0  0  0  0  0  0  0
  -10.2736   10.2202   -2.6308 H   0  0  0  0  0  0  0  0  0  0  0  0
  -11.8244   10.1332   -3.4707 H   0  0  0  0  0  0  0  0  0  0  0  0
  -10.7509    8.8149   -5.3130 H   0  0  0  0  0  0  0  0  0  0  0  0
   -9.2008    8.9023   -4.4727 H   0  0  0  0  0  0  0  0  0  0  0  0
   -9.2713   11.4034   -4.6038 H   0  0  0  0  0  0  0  0  0  0  0  0
  -10.8203   11.3154   -5.4449 H   0  0  0  0  0  0  0  0  0  0  0  0
   -9.7405   10.0142   -7.2972 H   0  0  0  0  0  0  0  0  0  0  0  0
   -8.1911   10.1028   -6.4558 H   0  0  0  0  0  0  0  0  0  0  0  0
   -9.8074   12.5112   -7.4465 H   0  0  0  0  0  0  0  0  0  0  0  0
   -8.3472   11.8498   -8.2041 H   0  0  0  0  0  0  0  0  0  0  0  0
   -8.2502   12.6003   -6.6007 H   0  0  0  0  0  0  0  0  0  0  0  0
  -14.0976    6.0214   -1.1474 H   0  0  0  0  0  0  0  0  0  0  0  0
  -14.0533    6.7780    0.4729 H   0  0  0  0  0  0  0  0  0  0  0  0
   -1.5523   -0.0136   -2.1270 H   0  0  0  0  0  0  0  0  0  0  0  0
    0.9055   -0.0342   -2.0505 H   0  0  0  0  0  0  0  0  0  0  0  0
  1  2  1  0  0  0  0
  1 29  1  0  0  0  0
  1 30  1  0  0  0  0
  1 31  1  0  0  0  0
  2  3  1  0  0  0  0
  2 28  2  0  0  0  0
  3  4  2  0  0  0  0
  3 32  1  0  0  0  0
  4  5  1  0  0  0  0
  4 33  1  0  0  0  0
  5  6  1  0  0  0  0
  5 27  2  0  0  0  0
  6  7  1  0  0  0  0
  6 34  1  0  0  0  0
  6 35  1  0  0  0  0
  7  8  1  0  0  0  0
  7 36  1  0  0  0  0
  7 37  1  0  0  0  0
  8  9  1  0  0  0  0
  8 38  1  0  0  0  0
  8 39  1  0  0  0  0
  9 10  1  0  0  0  0
  9 40  1  0  0  0  0
  9 41  1  0  0  0  0
 10 11  1  0  0  0  0
 10 42  1  0  0  0  0
 10 43  1  0  0  0  0
 11 12  1  0  0  0  0
 11 44  1  0  0  0  0
 11 45  1  0  0  0  0
 12 13  1  0  0  0  0
 12 46  1  0  0  0  0
 12 47  1  0  0  0  0
 13 14  2  0  0  0  0
 13 15  1  0  0  0  0
 15 16  2  0  0  0  0
 15 25  1  0  0  0  0
 16 17  1  0  0  0  0
 16 24  1  0  0  0  0
 17 18  1  0  0  0  0
 17 48  1  0  0  0  0
 17 49  1  0  0  0  0
 18 19  1  0  0  0  0
 18 50  1  0  0  0  0
 18 51  1  0  0  0  0
 19 20  1  0  0  0  0
 19 52  1  0  0  0  0
 19 53  1  0  0  0  0
 20 21  1  0  0  0  0
 20 54  1  0  0  0  0
 20 55  1  0  0  0  0
 21 22  1  0  0  0  0
 21 56  1  0  0  0  0
 21 57  1  0  0  0  0
 22 23  1  0  0  0  0
 22 58  1  0  0  0  0
 22 59  1  0  0  0  0
 23 60  1  0  0  0  0
 23 61  1  0  0  0  0
 23 62  1  0  0  0  0
 24 25  1  0  0  0  0
 24 63  1  0  0  0  0
 24 64  1  0  0  0  0
 25 26  2  0  0  0  0
 27 28  1  0  0  0  0
 27 65  1  0  0  0  0
 28 66  1  0  0  0  0
M  END
$$$$
