
 OpenBabel04232216523D

 62 63  0  0  1  0  0  0  0  0999 V2000
    0.8464    0.3705   -1.8419 C   0  0  0  0  0  0  0  0  0  0  0  0
    2.3628    0.4498   -1.8376 C   0  0  0  0  0  0  0  0  0  0  0  0
    2.9866   -0.7909   -1.1966 C   0  0  0  0  0  0  0  0  0  0  0  0
    4.5026   -0.7066   -1.2770 C   0  0  3  0  0  0  0  0  0  0  0  0
    5.2195    0.4011   -0.4841 C   0  0  0  0  0  0  0  0  0  0  0  0
    6.2411   -0.6635   -0.0580 C   0  0  3  0  0  0  0  0  0  0  0  0
    7.5071   -0.6666   -0.9089 C   0  0  0  0  0  0  0  0  0  0  0  0
    8.4628   -1.7685   -0.4738 C   0  0  0  0  0  0  0  0  0  0  0  0
    9.6922   -1.7703   -1.3781 C   0  0  0  0  0  0  0  0  0  0  0  0
   10.6606   -2.8569   -0.9501 C   0  0  0  0  0  0  0  0  0  0  0  0
   11.8644   -2.9419   -1.8856 C   0  0  0  0  0  0  0  0  0  0  0  0
   12.8587   -4.0059   -1.4433 C   0  0  0  0  0  0  0  0  0  0  0  0
   12.2615   -5.3984   -1.4376 C   0  0  0  0  0  0  0  0  0  0  0  0
   12.2472   -6.0809   -2.4669 O   0  0  0  0  0  0  0  0  0  0  0  0
   11.6237   -5.9221   -0.1960 C   0  0  0  0  0  0  0  0  0  0  0  0
   10.7028   -6.9007   -0.2549 C   0  0  0  0  0  0  0  0  0  0  0  0
   10.1859   -7.3080    1.0791 C   0  0  0  0  0  0  0  0  0  0  0  0
   11.0641   -6.4580    1.9660 C   0  0  0  0  0  0  0  0  0  0  0  0
   11.0714   -6.5550    3.1894 O   0  0  0  0  0  0  0  0  0  0  0  0
   11.8996   -5.4439    1.1952 C   0  0  3  0  0  0  0  0  0  0  0  0
   13.3508   -5.4102    1.6752 C   0  0  0  0  0  0  0  0  0  0  0  0
   14.1632   -6.6564    1.3204 C   0  0  0  0  0  0  0  0  0  0  0  0
   15.6361   -6.4556    1.6578 C   0  0  0  0  0  0  0  0  0  0  0  0
   16.4276   -7.7194    1.3700 C   0  0  0  0  0  0  0  0  0  0  0  0
    5.2420   -1.6813   -0.4477 C   0  0  0  0  0  3  0  0  0  0  0  0
    0.4215    1.2757   -2.2866 H   0  0  0  0  0  0  0  0  0  0  0  0
    0.4571    0.2763   -0.8232 H   0  0  0  0  0  0  0  0  0  0  0  0
    0.5015   -0.4896   -2.4241 H   0  0  0  0  0  0  0  0  0  0  0  0
    2.6734    1.3481   -1.2914 H   0  0  0  0  0  0  0  0  0  0  0  0
    2.7252    0.5654   -2.8661 H   0  0  0  0  0  0  0  0  0  0  0  0
    2.6445   -1.6876   -1.7292 H   0  0  0  0  0  0  0  0  0  0  0  0
    2.6480   -0.8808   -0.1578 H   0  0  0  0  0  0  0  0  0  0  0  0
    4.8384   -0.7668   -2.3230 H   0  0  0  0  0  0  0  0  0  0  0  0
    4.6465    0.8165    0.3552 H   0  0  0  0  0  0  0  0  0  0  0  0
    5.6066    1.2327   -1.0816 H   0  0  0  0  0  0  0  0  0  0  0  0
    6.4503   -0.6481    1.0180 H   0  0  0  0  0  0  0  0  0  0  0  0
    8.0126    0.3019   -0.8105 H   0  0  0  0  0  0  0  0  0  0  0  0
    7.2687   -0.7886   -1.9738 H   0  0  0  0  0  0  0  0  0  0  0  0
    7.9650   -2.7455   -0.5171 H   0  0  0  0  0  0  0  0  0  0  0  0
    8.7606   -1.6134    0.5713 H   0  0  0  0  0  0  0  0  0  0  0  0
   10.1896   -0.7942   -1.3384 H   0  0  0  0  0  0  0  0  0  0  0  0
    9.3850   -1.9404   -2.4170 H   0  0  0  0  0  0  0  0  0  0  0  0
   10.1224   -3.8100   -0.9434 H   0  0  0  0  0  0  0  0  0  0  0  0
   10.9997   -2.6574    0.0730 H   0  0  0  0  0  0  0  0  0  0  0  0
   12.3775   -1.9725   -1.9023 H   0  0  0  0  0  0  0  0  0  0  0  0
   11.5276   -3.1476   -2.9086 H   0  0  0  0  0  0  0  0  0  0  0  0
   13.2624   -3.7394   -0.4699 H   0  0  0  0  0  0  0  0  0  0  0  0
   13.7189   -4.0206   -2.1241 H   0  0  0  0  0  0  0  0  0  0  0  0
   10.3680   -7.3643   -1.1745 H   0  0  0  0  0  0  0  0  0  0  0  0
   10.3563   -8.3693    1.2725 H   0  0  0  0  0  0  0  0  0  0  0  0
    9.1363   -7.0327    1.2062 H   0  0  0  0  0  0  0  0  0  0  0  0
   11.4306   -4.4677    1.3584 H   0  0  0  0  0  0  0  0  0  0  0  0
   13.3714   -5.2691    2.7629 H   0  0  0  0  0  0  0  0  0  0  0  0
   13.8563   -4.5309    1.2661 H   0  0  0  0  0  0  0  0  0  0  0  0
   14.0812   -6.8817    0.2520 H   0  0  0  0  0  0  0  0  0  0  0  0
   13.7641   -7.5175    1.8661 H   0  0  0  0  0  0  0  0  0  0  0  0
   15.7499   -6.1839    2.7137 H   0  0  0  0  0  0  0  0  0  0  0  0
   16.0478   -5.6287    1.0637 H   0  0  0  0  0  0  0  0  0  0  0  0
   16.0498   -8.5561    1.9655 H   0  0  0  0  0  0  0  0  0  0  0  0
   17.4837   -7.5723    1.6152 H   0  0  0  0  0  0  0  0  0  0  0  0
   16.3562   -7.9918    0.3116 H   0  0  0  0  0  0  0  0  0  0  0  0
    4.7955   -2.3885    0.2385 H   0  0  0  0  0  0  0  0  0  0  0  0
  1  2  1  0  0  0  0
  1 26  1  0  0  0  0
  1 27  1  0  0  0  0
  1 28  1  0  0  0  0
  2  3  1  0  0  0  0
  2 29  1  0  0  0  0
  2 30  1  0  0  0  0
  3  4  1  0  0  0  0
  3 31  1  0  0  0  0
  3 32  1  0  0  0  0
  4  5  1  0  0  0  0
  4 25  1  0  0  0  0
  4 33  1  0  0  0  0
  5  6  1  0  0  0  0
  5 34  1  0  0  0  0
  5 35  1  0  0  0  0
  6  7  1  0  0  0  0
  6 25  1  0  0  0  0
  6 36  1  0  0  0  0
  7  8  1  0  0  0  0
  7 37  1  0  0  0  0
  7 38  1  0  0  0  0
  8  9  1  0  0  0  0
  8 39  1  0  0  0  0
  8 40  1  0  0  0  0
  9 10  1  0  0  0  0
  9 41  1  0  0  0  0
  9 42  1  0  0  0  0
 10 11  1  0  0  0  0
 10 43  1  0  0  0  0
 10 44  1  0  0  0  0
 11 12  1  0  0  0  0
 11 45  1  0  0  0  0
 11 46  1  0  0  0  0
 12 13  1  0  0  0  0
 12 47  1  0  0  0  0
 12 48  1  0  0  0  0
 13 14  2  0  0  0  0
 13 15  1  0  0  0  0
 15 16  2  0  0  0  0
 15 20  1  0  0  0  0
 16 17  1  0  0  0  0
 16 49  1  0  0  0  0
 17 18  1  0  0  0  0
 17 50  1  0  0  0  0
 17 51  1  0  0  0  0
 18 19  2  0  0  0  0
 18 20  1  0  0  0  0
 20 21  1  0  0  0  0
 20 52  1  0  0  0  0
 21 22  1  0  0  0  0
 21 53  1  0  0  0  0
 21 54  1  0  0  0  0
 22 23  1  0  0  0  0
 22 55  1  0  0  0  0
 22 56  1  0  0  0  0
 23 24  1  0  0  0  0
 23 57  1  0  0  0  0
 23 58  1  0  0  0  0
 24 59  1  0  0  0  0
 24 60  1  0  0  0  0
 24 61  1  0  0  0  0
 25 62  1  0  0  0  0
M  END
$$$$
