
 OpenBabel04232216583D

241240  0  0  0  0  0  0  0  0999 V2000
    0.9454    0.1527   -0.0797 N   0  0  0  0  0  0  0  0  0  0  0  0
    2.4025    0.1478   -0.0677 C   0  0  0  0  0  0  0  0  0  0  0  0
    2.9242    1.0745    1.0248 C   0  0  0  0  0  0  0  0  0  0  0  0
    4.4500    1.0715    1.0379 C   0  0  0  0  0  0  0  0  0  0  0  0
    4.9249    1.9697    2.0922 N   0  0  0  0  0  0  0  0  0  0  0  0
    6.3478    1.9577    2.0952 N   0  0  0  0  0  0  0  0  0  0  0  0
    6.8204    2.8278    3.1176 N   0  0  0  0  0  0  0  0  0  0  0  0
    8.2764    2.7985    3.1067 C   0  0  0  0  0  0  0  0  0  0  0  0
    8.7898    3.7298    4.1980 C   0  0  0  0  0  0  0  0  0  0  0  0
   10.3118    3.7336    4.2134 C   0  0  0  0  0  0  0  0  0  0  0  0
   10.8278    4.6624    5.3005 C   0  0  0  0  0  0  0  0  0  0  0  0
   12.3471    4.6604    5.3136 C   0  0  0  0  0  0  0  0  0  0  0  0
   12.8605    5.5871    6.4016 C   0  0  0  0  0  0  0  0  0  0  0  0
   14.3783    5.5852    6.4121 C   0  0  0  0  0  0  0  0  0  0  0  0
   14.8901    6.5114    7.4997 C   0  0  0  0  0  0  0  0  0  0  0  0
   16.4073    6.5073    7.5101 C   0  0  0  0  0  0  0  0  0  0  0  0
   16.9182    7.4318    8.5988 C   0  0  0  0  0  0  0  0  0  0  0  0
   18.4350    7.4289    8.6080 C   0  0  0  0  0  0  0  0  0  0  0  0
   18.9452    8.3521    9.6980 C   0  0  0  0  0  0  0  0  0  0  0  0
   20.4618    8.3478    9.7083 C   0  0  0  0  0  0  0  0  0  0  0  0
   20.9720    9.2722   10.7973 C   0  0  0  0  0  0  0  0  0  0  0  0
   22.4882    9.2691   10.8064 C   0  0  0  0  0  0  0  0  0  0  0  0
   22.9985   10.1922   11.8964 C   0  0  0  0  0  0  0  0  0  0  0  0
   24.5146   10.1876   11.9061 C   0  0  0  0  0  0  0  0  0  0  0  0
   25.0253   11.1109   12.9956 C   0  0  0  0  0  0  0  0  0  0  0  0
   26.5415   11.1072   13.0053 C   0  0  0  0  0  0  0  0  0  0  0  0
   27.0517   12.0301   14.0956 C   0  0  0  0  0  0  0  0  0  0  0  0
   28.5684   12.0268   14.1044 C   0  0  0  0  0  0  0  0  0  0  0  0
   29.0784   12.9497   15.1944 C   0  0  0  0  0  0  0  0  0  0  0  0
   30.5954   12.9469   15.2031 C   0  0  0  0  0  0  0  0  0  0  0  0
   31.1048   13.8700   16.2932 C   0  0  0  0  0  0  0  0  0  0  0  0
   32.6214   13.8669   16.3020 C   0  0  0  0  0  0  0  0  0  0  0  0
   33.1317   14.7901   17.3919 C   0  0  0  0  0  0  0  0  0  0  0  0
   34.6482   14.7884   17.3994 C   0  0  0  0  0  0  0  0  0  0  0  0
   35.1580   15.7113   18.4895 C   0  0  0  0  0  0  0  0  0  0  0  0
   36.6749   15.7113   18.4958 C   0  0  0  0  0  0  0  0  0  0  0  0
   37.1847   16.6362   19.5847 C   0  0  0  0  0  0  0  0  0  0  0  0
   38.7014   16.6375   19.5892 C   0  0  0  0  0  0  0  0  0  0  0  0
   39.2115   17.5611   20.6791 C   0  0  0  0  0  0  0  0  0  0  0  0
   40.7282   17.5637   20.6828 C   0  0  0  0  0  0  0  0  0  0  0  0
   41.2381   18.4856   21.7739 C   0  0  0  0  0  0  0  0  0  0  0  0
   42.7547   18.4890   21.7774 C   0  0  0  0  0  0  0  0  0  0  0  0
   43.2650   19.4100   22.8685 C   0  0  0  0  0  0  0  0  0  0  0  0
   44.7806   19.4145   22.8733 C   0  0  0  0  0  0  0  0  0  0  0  0
   45.2917   20.3337   23.9644 C   0  0  0  0  0  0  0  0  0  0  0  0
   46.8084   20.3372   23.9679 C   0  0  0  0  0  0  0  0  0  0  0  0
   47.3182   21.2588   25.0591 C   0  0  0  0  0  0  0  0  0  0  0  0
   48.8344   21.2628   25.0623 C   0  0  0  0  0  0  0  0  0  0  0  0
   49.3449   22.1836   26.1539 C   0  0  0  0  0  0  0  0  0  0  0  0
   50.8613   22.1876   26.1570 C   0  0  0  0  0  0  0  0  0  0  0  0
   51.3715   23.1094   27.2479 C   0  0  0  0  0  0  0  0  0  0  0  0
   52.8879   23.1126   27.2511 C   0  0  0  0  0  0  0  0  0  0  0  0
   53.3980   24.0325   28.3436 C   0  0  0  0  0  0  0  0  0  0  0  0
   54.9146   24.0369   28.3461 C   0  0  0  0  0  0  0  0  0  0  0  0
   55.4254   24.9553   29.4404 C   0  0  0  0  0  0  0  0  0  0  0  0
   56.9413   24.9587   29.4436 C   0  0  0  0  0  0  0  0  0  0  0  0
   57.4513   25.8786   30.5363 C   0  0  0  0  0  0  0  0  0  0  0  0
   58.9680   25.8830   30.5387 C   0  0  0  0  0  0  0  0  0  0  0  0
   59.4782   26.8029   31.6316 C   0  0  0  0  0  0  0  0  0  0  0  0
   60.9949   26.8089   31.6326 C   0  0  0  0  0  0  0  0  0  0  0  0
   61.5047   27.7289   32.7252 C   0  0  0  0  0  0  0  0  0  0  0  0
   63.0214   27.7352   32.7263 C   0  0  0  0  0  0  0  0  0  0  0  0
   63.5316   28.6554   33.8188 C   0  0  0  0  0  0  0  0  0  0  0  0
   65.0481   28.6612   33.8197 C   0  0  0  0  0  0  0  0  0  0  0  0
   65.5580   29.5817   34.9124 C   0  0  0  0  0  0  0  0  0  0  0  0
   67.0746   29.5876   34.9133 C   0  0  0  0  0  0  0  0  0  0  0  0
   67.5848   30.5077   36.0057 C   0  0  0  0  0  0  0  0  0  0  0  0
   69.1015   30.5138   36.0069 C   0  0  0  0  0  0  0  0  0  0  0  0
   69.6116   31.4338   37.0996 C   0  0  0  0  0  0  0  0  0  0  0  0
   71.1283   31.4384   37.1019 C   0  0  0  0  0  0  0  0  0  0  0  0
   71.6386   32.3584   38.1946 C   0  0  0  0  0  0  0  0  0  0  0  0
   73.1555   32.3633   38.1973 C   0  0  0  0  0  0  0  0  0  0  0  0
   73.6659   33.2833   39.2902 C   0  0  0  0  0  0  0  0  0  0  0  0
   75.1832   33.2885   39.2942 C   0  0  0  0  0  0  0  0  0  0  0  0
   75.6942   34.2087   40.3863 C   0  0  0  0  0  0  0  0  0  0  0  0
   77.2119   34.2131   40.3911 C   0  0  0  0  0  0  0  0  0  0  0  0
   77.7280   35.1331   41.4838 C   0  0  0  0  0  0  0  0  0  0  0  0
   79.2451   35.1394   41.4915 C   0  0  0  0  0  0  0  0  0  0  0  0
   79.7649   36.0609   42.5828 C   0  0  0  0  0  0  0  0  0  0  0  0
   81.2873   36.0741   42.6014 C   0  0  0  0  0  0  0  0  0  0  0  0
   81.8007   36.9946   43.6916 C   0  0  0  0  0  0  0  0  0  0  0  0
    0.6115   -0.4350   -0.8417 H   0  0  0  0  0  0  0  0  0  0  0  0
    0.6094    1.0947   -0.2769 H   0  0  0  0  0  0  0  0  0  0  0  0
    2.7755    0.4670   -1.0473 H   0  0  0  0  0  0  0  0  0  0  0  0
    2.7539   -0.8750    0.1057 H   0  0  0  0  0  0  0  0  0  0  0  0
    2.5418    0.7501    2.0013 H   0  0  0  0  0  0  0  0  0  0  0  0
    2.5585    2.0954    0.8559 H   0  0  0  0  0  0  0  0  0  0  0  0
    4.8237    1.4046    0.0614 H   0  0  0  0  0  0  0  0  0  0  0  0
    4.8180    0.0518    1.2115 H   0  0  0  0  0  0  0  0  0  0  0  0
    4.5741    1.6376    2.9898 H   0  0  0  0  0  0  0  0  0  0  0  0
    6.6756    2.2956    1.1905 H   0  0  0  0  0  0  0  0  0  0  0  0
    6.4696    2.4925    4.0139 H   0  0  0  0  0  0  0  0  0  0  0  0
    8.6598    3.1378    2.1359 H   0  0  0  0  0  0  0  0  0  0  0  0
    8.6494    1.7816    3.2827 H   0  0  0  0  0  0  0  0  0  0  0  0
    8.4133    3.4096    5.1779 H   0  0  0  0  0  0  0  0  0  0  0  0
    8.4219    4.7498    4.0273 H   0  0  0  0  0  0  0  0  0  0  0  0
   10.6942    4.0576    3.2375 H   0  0  0  0  0  0  0  0  0  0  0  0
   10.6851    2.7169    4.3866 H   0  0  0  0  0  0  0  0  0  0  0  0
   10.4476    4.3413    6.2780 H   0  0  0  0  0  0  0  0  0  0  0  0
   10.4594    5.6811    5.1278 H   0  0  0  0  0  0  0  0  0  0  0  0
   12.7301    4.9841    4.3380 H   0  0  0  0  0  0  0  0  0  0  0  0
   12.7184    3.6427    5.4862 H   0  0  0  0  0  0  0  0  0  0  0  0
   12.4808    5.2633    7.3786 H   0  0  0  0  0  0  0  0  0  0  0  0
   12.4903    6.6056    6.2310 H   0  0  0  0  0  0  0  0  0  0  0  0
   14.7597    5.9098    5.4361 H   0  0  0  0  0  0  0  0  0  0  0  0
   14.7501    4.5675    6.5836 H   0  0  0  0  0  0  0  0  0  0  0  0
   14.5091    6.1884    8.4764 H   0  0  0  0  0  0  0  0  0  0  0  0
   14.5207    7.5302    7.3283 H   0  0  0  0  0  0  0  0  0  0  0  0
   16.7890    6.8321    6.5343 H   0  0  0  0  0  0  0  0  0  0  0  0
   16.7775    5.4888    7.6806 H   0  0  0  0  0  0  0  0  0  0  0  0
   16.5379    7.1061    9.5749 H   0  0  0  0  0  0  0  0  0  0  0  0
   16.5475    8.4502    8.4294 H   0  0  0  0  0  0  0  0  0  0  0  0
   18.8157    7.7560    7.6325 H   0  0  0  0  0  0  0  0  0  0  0  0
   18.8063    6.4104    8.7764 H   0  0  0  0  0  0  0  0  0  0  0  0
   18.5636    8.0260   10.6734 H   0  0  0  0  0  0  0  0  0  0  0  0
   18.5751    9.3708    9.5289 H   0  0  0  0  0  0  0  0  0  0  0  0
   20.8438    8.6726    8.7327 H   0  0  0  0  0  0  0  0  0  0  0  0
   20.8317    7.3291    9.8789 H   0  0  0  0  0  0  0  0  0  0  0  0
   20.5910    8.9463   11.7732 H   0  0  0  0  0  0  0  0  0  0  0  0
   20.6008   10.2905   10.6276 H   0  0  0  0  0  0  0  0  0  0  0  0
   22.8689    9.5963    9.8308 H   0  0  0  0  0  0  0  0  0  0  0  0
   22.8595    8.2506   10.9744 H   0  0  0  0  0  0  0  0  0  0  0  0
   22.6167    9.8660   12.8719 H   0  0  0  0  0  0  0  0  0  0  0  0
   22.6281   11.2110   11.7272 H   0  0  0  0  0  0  0  0  0  0  0  0
   24.8964   10.5137   10.9308 H   0  0  0  0  0  0  0  0  0  0  0  0
   24.8848    9.1691   12.0755 H   0  0  0  0  0  0  0  0  0  0  0  0
   24.6445   10.7839   13.9721 H   0  0  0  0  0  0  0  0  0  0  0  0
   24.6545   12.1296   12.8279 H   0  0  0  0  0  0  0  0  0  0  0  0
   26.9226   11.4344   12.0298 H   0  0  0  0  0  0  0  0  0  0  0  0
   26.9126   10.0886   13.1734 H   0  0  0  0  0  0  0  0  0  0  0  0
   26.6710   11.7031   15.0710 H   0  0  0  0  0  0  0  0  0  0  0  0
   26.6807   13.0486   13.9271 H   0  0  0  0  0  0  0  0  0  0  0  0
   28.9488   12.3537   13.1288 H   0  0  0  0  0  0  0  0  0  0  0  0
   28.9391   11.0083   14.2733 H   0  0  0  0  0  0  0  0  0  0  0  0
   28.6985   12.6218   16.1697 H   0  0  0  0  0  0  0  0  0  0  0  0
   28.7073   13.9682   15.0262 H   0  0  0  0  0  0  0  0  0  0  0  0
   30.9756   13.2740   14.2273 H   0  0  0  0  0  0  0  0  0  0  0  0
   30.9663   11.9282   15.3713 H   0  0  0  0  0  0  0  0  0  0  0  0
   30.7244   13.5431   17.2686 H   0  0  0  0  0  0  0  0  0  0  0  0
   30.7338   14.8884   16.1247 H   0  0  0  0  0  0  0  0  0  0  0  0
   33.0019   14.1938   15.3263 H   0  0  0  0  0  0  0  0  0  0  0  0
   32.9928   12.8483   16.4703 H   0  0  0  0  0  0  0  0  0  0  0  0
   32.7522   14.4623   18.3675 H   0  0  0  0  0  0  0  0  0  0  0  0
   32.7594   15.8083   17.2241 H   0  0  0  0  0  0  0  0  0  0  0  0
   35.0275   15.1165   16.4237 H   0  0  0  0  0  0  0  0  0  0  0  0
   35.0206   13.7703   17.5667 H   0  0  0  0  0  0  0  0  0  0  0  0
   34.7798   15.3827   19.4653 H   0  0  0  0  0  0  0  0  0  0  0  0
   34.7848   16.7294   18.3229 H   0  0  0  0  0  0  0  0  0  0  0  0
   37.0533   16.0385   17.5195 H   0  0  0  0  0  0  0  0  0  0  0  0
   37.0485   14.6937   18.6638 H   0  0  0  0  0  0  0  0  0  0  0  0
   36.8076   16.3083   20.5604 H   0  0  0  0  0  0  0  0  0  0  0  0
   36.8104   17.6535   19.4166 H   0  0  0  0  0  0  0  0  0  0  0  0
   39.0782   16.9670   18.6132 H   0  0  0  0  0  0  0  0  0  0  0  0
   39.0761   15.6201   19.7554 H   0  0  0  0  0  0  0  0  0  0  0  0
   38.8356   17.2308   21.6551 H   0  0  0  0  0  0  0  0  0  0  0  0
   38.8359   18.5784   20.5138 H   0  0  0  0  0  0  0  0  0  0  0  0
   41.1041   17.8951   19.7072 H   0  0  0  0  0  0  0  0  0  0  0  0
   41.1039   16.5462   20.8469 H   0  0  0  0  0  0  0  0  0  0  0  0
   40.8625   18.1540   22.7498 H   0  0  0  0  0  0  0  0  0  0  0  0
   40.8621   19.5031   21.6102 H   0  0  0  0  0  0  0  0  0  0  0  0
   43.1306   18.8205   20.8016 H   0  0  0  0  0  0  0  0  0  0  0  0
   43.1305   17.4711   21.9412 H   0  0  0  0  0  0  0  0  0  0  0  0
   42.8887   19.0787   23.8444 H   0  0  0  0  0  0  0  0  0  0  0  0
   42.8894   20.4281   22.7046 H   0  0  0  0  0  0  0  0  0  0  0  0
   45.1576   19.7474   21.8943 H   0  0  0  0  0  0  0  0  0  0  0  0
   45.1566   18.3990   23.0366 H   0  0  0  0  0  0  0  0  0  0  0  0
   44.9163   20.0016   24.9396 H   0  0  0  0  0  0  0  0  0  0  0  0
   44.9157   21.3524   23.8010 H   0  0  0  0  0  0  0  0  0  0  0  0
   47.1842   20.6691   22.9920 H   0  0  0  0  0  0  0  0  0  0  0  0
   47.1842   19.3196   24.1315 H   0  0  0  0  0  0  0  0  0  0  0  0
   46.9427   20.9272   26.0348 H   0  0  0  0  0  0  0  0  0  0  0  0
   46.9421   22.2763   24.8954 H   0  0  0  0  0  0  0  0  0  0  0  0
   49.2108   21.5947   24.0868 H   0  0  0  0  0  0  0  0  0  0  0  0
   49.2112   20.2447   25.2258 H   0  0  0  0  0  0  0  0  0  0  0  0
   48.9698   21.8509   27.1296 H   0  0  0  0  0  0  0  0  0  0  0  0
   48.9682   23.2010   25.9913 H   0  0  0  0  0  0  0  0  0  0  0  0
   51.2362   22.5202   25.1806 H   0  0  0  0  0  0  0  0  0  0  0  0
   51.2379   21.1702   26.3195 H   0  0  0  0  0  0  0  0  0  0  0  0
   50.9958   22.7777   28.2235 H   0  0  0  0  0  0  0  0  0  0  0  0
   50.9955   24.1266   27.0839 H   0  0  0  0  0  0  0  0  0  0  0  0
   53.2637   23.4458   26.2757 H   0  0  0  0  0  0  0  0  0  0  0  0
   53.2641   22.0950   27.4134 H   0  0  0  0  0  0  0  0  0  0  0  0
   53.0234   23.6985   29.3191 H   0  0  0  0  0  0  0  0  0  0  0  0
   53.0214   25.0502   28.1825 H   0  0  0  0  0  0  0  0  0  0  0  0
   55.2894   24.3725   27.3711 H   0  0  0  0  0  0  0  0  0  0  0  0
   55.2917   23.0190   28.5058 H   0  0  0  0  0  0  0  0  0  0  0  0
   55.0491   24.6205   30.4149 H   0  0  0  0  0  0  0  0  0  0  0  0
   55.0482   25.9733   29.2791 H   0  0  0  0  0  0  0  0  0  0  0  0
   57.3171   25.2921   28.4684 H   0  0  0  0  0  0  0  0  0  0  0  0
   57.3175   23.9410   29.6056 H   0  0  0  0  0  0  0  0  0  0  0  0
   57.0766   25.5445   31.5118 H   0  0  0  0  0  0  0  0  0  0  0  0
   57.0745   26.8960   30.3750 H   0  0  0  0  0  0  0  0  0  0  0  0
   59.3426   26.2175   29.5634 H   0  0  0  0  0  0  0  0  0  0  0  0
   59.3450   24.8658   30.6999 H   0  0  0  0  0  0  0  0  0  0  0  0
   59.1045   26.4680   32.6071 H   0  0  0  0  0  0  0  0  0  0  0  0
   59.1000   27.8201   31.4712 H   0  0  0  0  0  0  0  0  0  0  0  0
   61.3681   27.1440   30.6569 H   0  0  0  0  0  0  0  0  0  0  0  0
   61.3729   25.7919   31.7929 H   0  0  0  0  0  0  0  0  0  0  0  0
   61.1312   27.3941   33.7009 H   0  0  0  0  0  0  0  0  0  0  0  0
   61.1266   28.7461   32.5645 H   0  0  0  0  0  0  0  0  0  0  0  0
   63.3947   28.0702   31.7506 H   0  0  0  0  0  0  0  0  0  0  0  0
   63.3997   26.7182   32.8872 H   0  0  0  0  0  0  0  0  0  0  0  0
   63.1583   28.3206   34.7944 H   0  0  0  0  0  0  0  0  0  0  0  0
   63.1534   29.6729   33.6580 H   0  0  0  0  0  0  0  0  0  0  0  0
   65.4218   28.9966   32.8442 H   0  0  0  0  0  0  0  0  0  0  0  0
   65.4265   27.6445   33.9806 H   0  0  0  0  0  0  0  0  0  0  0  0
   65.1845   29.2468   35.8878 H   0  0  0  0  0  0  0  0  0  0  0  0
   65.1798   30.5988   34.7514 H   0  0  0  0  0  0  0  0  0  0  0  0
   67.4480   29.9225   33.9373 H   0  0  0  0  0  0  0  0  0  0  0  0
   67.4527   28.5707   35.0737 H   0  0  0  0  0  0  0  0  0  0  0  0
   67.2113   30.1727   36.9814 H   0  0  0  0  0  0  0  0  0  0  0  0
   67.2067   31.5248   35.8453 H   0  0  0  0  0  0  0  0  0  0  0  0
   69.4749   30.8486   35.0314 H   0  0  0  0  0  0  0  0  0  0  0  0
   69.4795   29.4966   36.1675 H   0  0  0  0  0  0  0  0  0  0  0  0
   69.2370   31.0996   38.0750 H   0  0  0  0  0  0  0  0  0  0  0  0
   69.2345   32.4511   36.9382 H   0  0  0  0  0  0  0  0  0  0  0  0
   71.5028   31.7724   36.1264 H   0  0  0  0  0  0  0  0  0  0  0  0
   71.5052   30.4209   37.2632 H   0  0  0  0  0  0  0  0  0  0  0  0
   71.2639   32.0243   39.1699 H   0  0  0  0  0  0  0  0  0  0  0  0
   71.2615   33.3758   38.0332 H   0  0  0  0  0  0  0  0  0  0  0  0
   73.5301   32.6974   37.2219 H   0  0  0  0  0  0  0  0  0  0  0  0
   73.5324   31.3458   38.3587 H   0  0  0  0  0  0  0  0  0  0  0  0
   73.2908   32.9492   40.2654 H   0  0  0  0  0  0  0  0  0  0  0  0
   73.2887   34.3007   39.1288 H   0  0  0  0  0  0  0  0  0  0  0  0
   75.5579   33.6218   38.3183 H   0  0  0  0  0  0  0  0  0  0  0  0
   75.5599   32.2709   39.4556 H   0  0  0  0  0  0  0  0  0  0  0  0
   75.3179   33.8755   41.3615 H   0  0  0  0  0  0  0  0  0  0  0  0
   75.3176   35.2264   40.2237 H   0  0  0  0  0  0  0  0  0  0  0  0
   77.5869   34.5455   39.4151 H   0  0  0  0  0  0  0  0  0  0  0  0
   77.5869   33.1946   40.5525 H   0  0  0  0  0  0  0  0  0  0  0  0
   77.3501   34.7999   42.4586 H   0  0  0  0  0  0  0  0  0  0  0  0
   77.3500   36.1504   41.3214 H   0  0  0  0  0  0  0  0  0  0  0  0
   79.6216   35.4699   40.5132 H   0  0  0  0  0  0  0  0  0  0  0  0
   79.6213   34.1196   41.6531 H   0  0  0  0  0  0  0  0  0  0  0  0
   79.3827   35.7292   43.5571 H   0  0  0  0  0  0  0  0  0  0  0  0
   79.3850   37.0776   42.4174 H   0  0  0  0  0  0  0  0  0  0  0  0
   81.6686   36.4074   41.6289 H   0  0  0  0  0  0  0  0  0  0  0  0
   81.6663   35.0589   42.7686 H   0  0  0  0  0  0  0  0  0  0  0  0
   81.4526   38.0195   43.5294 H   0  0  0  0  0  0  0  0  0  0  0  0
   82.8941   36.9994   43.6995 H   0  0  0  0  0  0  0  0  0  0  0  0
   81.4502   36.6646   44.6745 H   0  0  0  0  0  0  0  0  0  0  0  0
  1  2  1  0  0  0  0
  1 82  1  0  0  0  0
  1 83  1  0  0  0  0
  2  3  1  0  0  0  0
  2 84  1  0  0  0  0
  2 85  1  0  0  0  0
  3  4  1  0  0  0  0
  3 86  1  0  0  0  0
  3 87  1  0  0  0  0
  4  5  1  0  0  0  0
  4 88  1  0  0  0  0
  4 89  1  0  0  0  0
  5  6  1  0  0  0  0
  5 90  1  0  0  0  0
  6  7  1  0  0  0  0
  6 91  1  0  0  0  0
  7  8  1  0  0  0  0
  7 92  1  0  0  0  0
  8  9  1  0  0  0  0
  8 93  1  0  0  0  0
  8 94  1  0  0  0  0
  9 10  1  0  0  0  0
  9 95  1  0  0  0  0
  9 96  1  0  0  0  0
 10 11  1  0  0  0  0
 10 97  1  0  0  0  0
 10 98  1  0  0  0  0
 11 12  1  0  0  0  0
 11 99  1  0  0  0  0
 11100  1  0  0  0  0
 12 13  1  0  0  0  0
 12101  1  0  0  0  0
 12102  1  0  0  0  0
 13 14  1  0  0  0  0
 13103  1  0  0  0  0
 13104  1  0  0  0  0
 14 15  1  0  0  0  0
 14105  1  0  0  0  0
 14106  1  0  0  0  0
 15 16  1  0  0  0  0
 15107  1  0  0  0  0
 15108  1  0  0  0  0
 16 17  1  0  0  0  0
 16109  1  0  0  0  0
 16110  1  0  0  0  0
 17 18  1  0  0  0  0
 17111  1  0  0  0  0
 17112  1  0  0  0  0
 18 19  1  0  0  0  0
 18113  1  0  0  0  0
 18114  1  0  0  0  0
 19 20  1  0  0  0  0
 19115  1  0  0  0  0
 19116  1  0  0  0  0
 20 21  1  0  0  0  0
 20117  1  0  0  0  0
 20118  1  0  0  0  0
 21 22  1  0  0  0  0
 21119  1  0  0  0  0
 21120  1  0  0  0  0
 22 23  1  0  0  0  0
 22121  1  0  0  0  0
 22122  1  0  0  0  0
 23 24  1  0  0  0  0
 23123  1  0  0  0  0
 23124  1  0  0  0  0
 24 25  1  0  0  0  0
 24125  1  0  0  0  0
 24126  1  0  0  0  0
 25 26  1  0  0  0  0
 25127  1  0  0  0  0
 25128  1  0  0  0  0
 26 27  1  0  0  0  0
 26129  1  0  0  0  0
 26130  1  0  0  0  0
 27 28  1  0  0  0  0
 27131  1  0  0  0  0
 27132  1  0  0  0  0
 28 29  1  0  0  0  0
 28133  1  0  0  0  0
 28134  1  0  0  0  0
 29 30  1  0  0  0  0
 29135  1  0  0  0  0
 29136  1  0  0  0  0
 30 31  1  0  0  0  0
 30137  1  0  0  0  0
 30138  1  0  0  0  0
 31 32  1  0  0  0  0
 31139  1  0  0  0  0
 31140  1  0  0  0  0
 32 33  1  0  0  0  0
 32141  1  0  0  0  0
 32142  1  0  0  0  0
 33 34  1  0  0  0  0
 33143  1  0  0  0  0
 33144  1  0  0  0  0
 34 35  1  0  0  0  0
 34145  1  0  0  0  0
 34146  1  0  0  0  0
 35 36  1  0  0  0  0
 35147  1  0  0  0  0
 35148  1  0  0  0  0
 36 37  1  0  0  0  0
 36149  1  0  0  0  0
 36150  1  0  0  0  0
 37 38  1  0  0  0  0
 37151  1  0  0  0  0
 37152  1  0  0  0  0
 38 39  1  0  0  0  0
 38153  1  0  0  0  0
 38154  1  0  0  0  0
 39 40  1  0  0  0  0
 39155  1  0  0  0  0
 39156  1  0  0  0  0
 40 41  1  0  0  0  0
 40157  1  0  0  0  0
 40158  1  0  0  0  0
 41 42  1  0  0  0  0
 41159  1  0  0  0  0
 41160  1  0  0  0  0
 42 43  1  0  0  0  0
 42161  1  0  0  0  0
 42162  1  0  0  0  0
 43 44  1  0  0  0  0
 43163  1  0  0  0  0
 43164  1  0  0  0  0
 44 45  1  0  0  0  0
 44165  1  0  0  0  0
 44166  1  0  0  0  0
 45 46  1  0  0  0  0
 45167  1  0  0  0  0
 45168  1  0  0  0  0
 46 47  1  0  0  0  0
 46169  1  0  0  0  0
 46170  1  0  0  0  0
 47 48  1  0  0  0  0
 47171  1  0  0  0  0
 47172  1  0  0  0  0
 48 49  1  0  0  0  0
 48173  1  0  0  0  0
 48174  1  0  0  0  0
 49 50  1  0  0  0  0
 49175  1  0  0  0  0
 49176  1  0  0  0  0
 50 51  1  0  0  0  0
 50177  1  0  0  0  0
 50178  1  0  0  0  0
 51 52  1  0  0  0  0
 51179  1  0  0  0  0
 51180  1  0  0  0  0
 52 53  1  0  0  0  0
 52181  1  0  0  0  0
 52182  1  0  0  0  0
 53 54  1  0  0  0  0
 53183  1  0  0  0  0
 53184  1  0  0  0  0
 54 55  1  0  0  0  0
 54185  1  0  0  0  0
 54186  1  0  0  0  0
 55 56  1  0  0  0  0
 55187  1  0  0  0  0
 55188  1  0  0  0  0
 56 57  1  0  0  0  0
 56189  1  0  0  0  0
 56190  1  0  0  0  0
 57 58  1  0  0  0  0
 57191  1  0  0  0  0
 57192  1  0  0  0  0
 58 59  1  0  0  0  0
 58193  1  0  0  0  0
 58194  1  0  0  0  0
 59 60  1  0  0  0  0
 59195  1  0  0  0  0
 59196  1  0  0  0  0
 60 61  1  0  0  0  0
 60197  1  0  0  0  0
 60198  1  0  0  0  0
 61 62  1  0  0  0  0
 61199  1  0  0  0  0
 61200  1  0  0  0  0
 62 63  1  0  0  0  0
 62201  1  0  0  0  0
 62202  1  0  0  0  0
 63 64  1  0  0  0  0
 63203  1  0  0  0  0
 63204  1  0  0  0  0
 64 65  1  0  0  0  0
 64205  1  0  0  0  0
 64206  1  0  0  0  0
 65 66  1  0  0  0  0
 65207  1  0  0  0  0
 65208  1  0  0  0  0
 66 67  1  0  0  0  0
 66209  1  0  0  0  0
 66210  1  0  0  0  0
 67 68  1  0  0  0  0
 67211  1  0  0  0  0
 67212  1  0  0  0  0
 68 69  1  0  0  0  0
 68213  1  0  0  0  0
 68214  1  0  0  0  0
 69 70  1  0  0  0  0
 69215  1  0  0  0  0
 69216  1  0  0  0  0
 70 71  1  0  0  0  0
 70217  1  0  0  0  0
 70218  1  0  0  0  0
 71 72  1  0  0  0  0
 71219  1  0  0  0  0
 71220  1  0  0  0  0
 72 73  1  0  0  0  0
 72221  1  0  0  0  0
 72222  1  0  0  0  0
 73 74  1  0  0  0  0
 73223  1  0  0  0  0
 73224  1  0  0  0  0
 74 75  1  0  0  0  0
 74225  1  0  0  0  0
 74226  1  0  0  0  0
 75 76  1  0  0  0  0
 75227  1  0  0  0  0
 75228  1  0  0  0  0
 76 77  1  0  0  0  0
 76229  1  0  0  0  0
 76230  1  0  0  0  0
 77 78  1  0  0  0  0
 77231  1  0  0  0  0
 77232  1  0  0  0  0
 78 79  1  0  0  0  0
 78233  1  0  0  0  0
 78234  1  0  0  0  0
 79 80  1  0  0  0  0
 79235  1  0  0  0  0
 79236  1  0  0  0  0
 80 81  1  0  0  0  0
 80237  1  0  0  0  0
 80238  1  0  0  0  0
 81239  1  0  0  0  0
 81240  1  0  0  0  0
 81241  1  0  0  0  0
M  END
$$$$
