
 OpenBabel04232216483D

 56 57  0  0  0  0  0  0  0  0999 V2000
    6.7297    2.5569   -0.1973 C   0  0  0  0  0  0  0  0  0  0  0  0
    7.7713    1.4493    0.1567 C   0  0  0  0  0  0  0  0  0  0  0  0
    7.4345    0.2895   -0.8420 C   0  0  0  0  0  0  0  0  0  0  0  0
    6.5107   -0.6861   -0.4908 C   0  0  0  0  0  0  0  0  0  0  0  0
    5.9301   -0.7679    0.8582 C   0  0  0  0  0  0  0  0  0  0  0  0
    4.5133   -0.0117    0.8194 C   0  0  0  0  0  0  0  0  0  0  0  0
    2.9658   -0.3811    0.7780 C   0  0  0  0  0  0  0  0  0  0  0  0
    1.9555   -0.2650    1.9514 C   0  0  0  0  0  0  0  0  0  0  0  0
    2.1728    0.6689    3.1486 C   0  0  0  0  0  0  0  0  0  0  0  0
    1.6527    2.1186    3.1579 C   0  0  0  0  0  0  0  0  0  0  0  0
    2.4778    3.1326    2.3885 C   0  0  0  0  0  0  0  0  0  0  0  0
    6.9020   -0.9051    1.8042 C   0  0  0  0  0  0  0  0  0  0  0  0
    8.4542   -0.7680    1.6648 C   0  0  0  0  0  0  0  0  0  0  0  0
    8.9244   -1.9117    1.0147 N   0  0  0  0  0  0  0  0  0  0  0  0
    9.2712   -2.8110    1.8032 N   0  0  0  0  0  0  0  0  0  0  0  0
   10.5928   -3.0227    1.6346 C   0  0  0  0  0  0  0  0  0  0  0  0
   11.3468   -3.4172    2.6657 C   0  0  0  0  0  0  0  0  0  0  0  0
   12.7339   -3.3937    2.3941 C   0  0  0  0  0  0  0  0  0  0  0  0
   13.6807   -3.9200    3.1881 C   0  0  0  0  0  0  0  0  0  0  0  0
   15.0012   -3.3077    3.0163 C   0  0  0  0  0  0  0  0  0  0  0  0
   15.1760   -2.3887    3.9640 C   0  0  0  0  0  0  0  0  0  0  0  0
   14.5956   -0.9776    3.9222 C   0  0  0  0  0  0  0  0  0  0  0  0
   13.2640   -0.5604    3.8636 C   0  0  0  0  0  0  0  0  0  0  0  0
   12.1807   -0.0923    2.6399 C   0  0  0  0  0  0  0  0  0  0  0  0
   10.7635    0.1428    2.6386 C   0  0  0  0  0  0  0  0  0  0  0  0
    9.3292    0.2711    1.5991 C   0  0  0  0  0  0  0  0  0  0  0  0
    8.6642    1.5089    1.1642 N   0  0  0  0  0  0  0  0  0  0  0  0
    5.7112    2.1744   -0.0059 H   0  0  0  0  0  0  0  0  0  0  0  0
    6.6968    2.7480   -1.2883 H   0  0  0  0  0  0  0  0  0  0  0  0
    6.7904    3.5047    0.3322 H   0  0  0  0  0  0  0  0  0  0  0  0
    7.6338    0.4544   -1.8990 H   0  0  0  0  0  0  0  0  0  0  0  0
    6.1308   -1.3513   -1.2409 H   0  0  0  0  0  0  0  0  0  0  0  0
    4.5116    0.2846   -0.2550 H   0  0  0  0  0  0  0  0  0  0  0  0
    4.6012    0.9441    1.3337 H   0  0  0  0  0  0  0  0  0  0  0  0
    2.8071   -1.3459    0.2773 H   0  0  0  0  0  0  0  0  0  0  0  0
    2.5342    0.3461    0.0584 H   0  0  0  0  0  0  0  0  0  0  0  0
    1.8699   -1.2784    2.3660 H   0  0  0  0  0  0  0  0  0  0  0  0
    0.9529   -0.0654    1.5340 H   0  0  0  0  0  0  0  0  0  0  0  0
    3.2193    0.6399    3.4553 H   0  0  0  0  0  0  0  0  0  0  0  0
    1.6025    0.1974    3.9646 H   0  0  0  0  0  0  0  0  0  0  0  0
    1.6753    2.4433    4.2100 H   0  0  0  0  0  0  0  0  0  0  0  0
    0.5982    2.1849    2.8613 H   0  0  0  0  0  0  0  0  0  0  0  0
    3.5473    2.9898    2.5645 H   0  0  0  0  0  0  0  0  0  0  0  0
    2.2261    4.1471    2.7270 H   0  0  0  0  0  0  0  0  0  0  0  0
    2.2767    3.0824    1.3162 H   0  0  0  0  0  0  0  0  0  0  0  0
    6.7842   -1.8032    2.3226 H   0  0  0  0  0  0  0  0  0  0  0  0
   11.0516   -2.7174    0.7051 H   0  0  0  0  0  0  0  0  0  0  0  0
   10.9498   -3.5573    3.6601 H   0  0  0  0  0  0  0  0  0  0  0  0
   13.0535   -2.7363    1.5880 H   0  0  0  0  0  0  0  0  0  0  0  0
   13.4346   -4.4232    4.1113 H   0  0  0  0  0  0  0  0  0  0  0  0
   15.1159   -2.9404    1.9711 H   0  0  0  0  0  0  0  0  0  0  0  0
   15.3093   -2.8256    4.9810 H   0  0  0  0  0  0  0  0  0  0  0  0
   15.1412   -0.6368    4.8506 H   0  0  0  0  0  0  0  0  0  0  0  0
   12.9404   -0.1601    4.8337 H   0  0  0  0  0  0  0  0  0  0  0  0
   12.7968    0.0179    1.7431 H   0  0  0  0  0  0  0  0  0  0  0  0
   10.3378   -0.0085    3.6368 H   0  0  0  0  0  0  0  0  0  0  0  0
  1  2  1  0  0  0  0
  1 28  1  0  0  0  0
  1 29  1  0  0  0  0
  1 30  1  0  0  0  0
  2  3  1  0  0  0  0
  2 27  2  0  0  0  0
  3  4  2  0  0  0  0
  3 31  1  0  0  0  0
  4  5  1  0  0  0  0
  4 32  1  0  0  0  0
  5  6  1  0  0  0  0
  5 12  2  0  0  0  0
  6  7  1  0  0  0  0
  6 33  1  0  0  0  0
  6 34  1  0  0  0  0
  7  8  1  0  0  0  0
  7 35  1  0  0  0  0
  7 36  1  0  0  0  0
  8  9  1  0  0  0  0
  8 37  1  0  0  0  0
  8 38  1  0  0  0  0
  9 10  1  0  0  0  0
  9 39  1  0  0  0  0
  9 40  1  0  0  0  0
 10 11  1  0  0  0  0
 10 41  1  0  0  0  0
 10 42  1  0  0  0  0
 11 43  1  0  0  0  0
 11 44  1  0  0  0  0
 11 45  1  0  0  0  0
 12 13  1  0  0  0  0
 12 46  1  0  0  0  0
 13 14  1  0  0  0  0
 13 26  2  0  0  0  0
 14 15  2  0  0  0  0
 15 16  1  0  0  0  0
 16 17  2  0  0  0  0
 16 47  1  0  0  0  0
 17 18  1  0  0  0  0
 17 48  1  0  0  0  0
 18 19  2  0  0  0  0
 18 49  1  0  0  0  0
 19 20  1  0  0  0  0
 19 50  1  0  0  0  0
 20 21  2  0  0  0  0
 20 51  1  0  0  0  0
 21 22  1  0  0  0  0
 21 52  1  0  0  0  0
 22 23  2  0  0  0  0
 22 53  1  0  0  0  0
 23 24  1  0  0  0  0
 23 54  1  0  0  0  0
 24 25  2  0  0  0  0
 24 55  1  0  0  0  0
 25 26  1  0  0  0  0
 25 56  1  0  0  0  0
 26 27  1  0  0  0  0
M  END
$$$$
