
 OpenBabel04232217033D

 85 84  0  0  0  0  0  0  0  0999 V2000
   12.6603   -6.5668  -10.2141 S   0  0  0  0  0  0  0  0  0  0  0  0
   12.0351   -6.8930   -8.7498 O   0  0  0  0  0  0  0  0  0  0  0  0
   10.5693   -6.8712   -8.7913 O   0  0  0  0  0  0  0  0  0  0  0  0
    9.8768   -7.1438   -7.3071 S   0  0  0  0  0  0  0  0  0  0  0  0
   10.6137   -5.5023   -6.2650 S   0  0  0  0  0  0  0  0  0  0  0  0
    9.8981   -4.2573   -7.1043 N   0  0  0  0  0  0  0  0  0  0  0  0
   10.2590   -2.9774   -6.5321 N   0  0  0  0  0  0  0  0  0  0  0  0
    9.6633   -1.7463   -7.4804 S   0  0  0  0  0  0  0  0  0  0  0  0
   10.3526   -0.0678   -6.4894 S   0  0  0  0  0  0  0  0  0  0  0  0
   12.4291   -0.0506   -6.5407 S   0  0  0  0  0  0  0  0  0  0  0  0
   13.0930    0.0619   -8.5067 S   0  0  0  0  0  0  0  0  0  0  0  0
   15.1940    0.0299   -8.4681 S   0  0  0  0  0  0  0  0  0  0  0  0
   15.8999    0.0520  -10.4569 S   0  0  0  0  0  0  0  0  0  0  0  0
   18.0128    0.0530  -10.4419 S   0  0  0  0  0  0  0  0  0  0  0  0
   18.7101    0.0732  -12.4366 S   0  0  0  0  0  0  0  0  0  0  0  0
   20.8221    0.0731  -12.4252 S   0  0  0  0  0  0  0  0  0  0  0  0
   21.5147    0.0936  -14.4199 S   0  0  0  0  0  0  0  0  0  0  0  0
   23.6254    0.0935  -14.4080 S   0  0  0  0  0  0  0  0  0  0  0  0
   24.3169    0.1140  -16.4017 S   0  0  0  0  0  0  0  0  0  0  0  0
   26.4269    0.1139  -16.3889 S   0  0  0  0  0  0  0  0  0  0  0  0
   27.1179    0.1344  -18.3822 S   0  0  0  0  0  0  0  0  0  0  0  0
   29.2275    0.1342  -18.3690 S   0  0  0  0  0  0  0  0  0  0  0  0
   29.9182    0.1547  -20.3622 S   0  0  0  0  0  0  0  0  0  0  0  0
   32.0276    0.1546  -20.3490 S   0  0  0  0  0  0  0  0  0  0  0  0
   32.7183    0.1751  -22.3420 S   0  0  0  0  0  0  0  0  0  0  0  0
   34.8277    0.1749  -22.3288 S   0  0  0  0  0  0  0  0  0  0  0  0
   35.5183    0.1954  -24.3219 S   0  0  0  0  0  0  0  0  0  0  0  0
   37.6277    0.1953  -24.3086 S   0  0  0  0  0  0  0  0  0  0  0  0
   38.3183    0.2158  -26.3017 S   0  0  0  0  0  0  0  0  0  0  0  0
   40.4277    0.2157  -26.2884 S   0  0  0  0  0  0  0  0  0  0  0  0
   41.1183    0.2362  -28.2815 S   0  0  0  0  0  0  0  0  0  0  0  0
   43.2277    0.2360  -28.2682 S   0  0  0  0  0  0  0  0  0  0  0  0
   43.9183    0.2565  -30.2613 S   0  0  0  0  0  0  0  0  0  0  0  0
   46.0277    0.2564  -30.2480 S   0  0  0  0  0  0  0  0  0  0  0  0
   46.7183    0.2769  -32.2411 S   0  0  0  0  0  0  0  0  0  0  0  0
   48.8277    0.2768  -32.2278 S   0  0  0  0  0  0  0  0  0  0  0  0
   49.5183    0.2973  -34.2208 S   0  0  0  0  0  0  0  0  0  0  0  0
   51.6277    0.2971  -34.2076 S   0  0  0  0  0  0  0  0  0  0  0  0
   52.3183    0.3176  -36.2006 S   0  0  0  0  0  0  0  0  0  0  0  0
   54.4276    0.3175  -36.1874 S   0  0  0  0  0  0  0  0  0  0  0  0
   55.1183    0.3380  -38.1804 S   0  0  0  0  0  0  0  0  0  0  0  0
   57.2276    0.3378  -38.1672 S   0  0  0  0  0  0  0  0  0  0  0  0
   57.9183    0.3583  -40.1602 S   0  0  0  0  0  0  0  0  0  0  0  0
   60.0276    0.3582  -40.1470 S   0  0  0  0  0  0  0  0  0  0  0  0
   60.7183    0.3787  -42.1400 S   0  0  0  0  0  0  0  0  0  0  0  0
   62.8276    0.3786  -42.1268 S   0  0  0  0  0  0  0  0  0  0  0  0
   63.5182    0.3991  -44.1198 S   0  0  0  0  0  0  0  0  0  0  0  0
   65.6276    0.3989  -44.1066 S   0  0  0  0  0  0  0  0  0  0  0  0
   66.3182    0.4194  -46.0996 S   0  0  0  0  0  0  0  0  0  0  0  0
   68.4276    0.4193  -46.0864 S   0  0  0  0  0  0  0  0  0  0  0  0
   69.1182    0.4398  -48.0794 S   0  0  0  0  0  0  0  0  0  0  0  0
   71.2276    0.4397  -48.0662 S   0  0  0  0  0  0  0  0  0  0  0  0
   71.9182    0.4601  -50.0592 S   0  0  0  0  0  0  0  0  0  0  0  0
   74.0276    0.4600  -50.0460 S   0  0  0  0  0  0  0  0  0  0  0  0
   74.7182    0.4805  -52.0390 S   0  0  0  0  0  0  0  0  0  0  0  0
   76.8276    0.4804  -52.0258 S   0  0  0  0  0  0  0  0  0  0  0  0
   77.5182    0.5009  -54.0188 S   0  0  0  0  0  0  0  0  0  0  0  0
   79.6276    0.5007  -54.0056 S   0  0  0  0  0  0  0  0  0  0  0  0
   80.3182    0.5212  -55.9986 S   0  0  0  0  0  0  0  0  0  0  0  0
   82.4276    0.5211  -55.9854 S   0  0  0  0  0  0  0  0  0  0  0  0
   83.1182    0.5416  -57.9784 S   0  0  0  0  0  0  0  0  0  0  0  0
   85.2276    0.5415  -57.9652 S   0  0  0  0  0  0  0  0  0  0  0  0
   85.9182    0.5620  -59.9582 S   0  0  0  0  0  0  0  0  0  0  0  0
   88.0275    0.5618  -59.9449 S   0  0  0  0  0  0  0  0  0  0  0  0
   88.7181    0.5823  -61.9380 S   0  0  0  0  0  0  0  0  0  0  0  0
   90.8274    0.5822  -61.9247 S   0  0  0  0  0  0  0  0  0  0  0  0
   91.5179    0.6027  -63.9176 S   0  0  0  0  0  0  0  0  0  0  0  0
   93.6271    0.6025  -63.9042 S   0  0  0  0  0  0  0  0  0  0  0  0
   94.3172    0.6230  -65.8969 S   0  0  0  0  0  0  0  0  0  0  0  0
   96.4257    0.6229  -65.8831 S   0  0  0  0  0  0  0  0  0  0  0  0
   97.1148    0.6434  -67.8752 S   0  0  0  0  0  0  0  0  0  0  0  0
   99.2217    0.6432  -67.8599 S   0  0  0  0  0  0  0  0  0  0  0  0
   99.9083    0.6637  -69.8503 S   0  0  0  0  0  0  0  0  0  0  0  0
  102.0115    0.6635  -69.8312 S   0  0  0  0  0  0  0  0  0  0  0  0
  102.6925    0.6837  -71.8175 S   0  0  0  0  0  0  0  0  0  0  0  0
  104.7877    0.6843  -71.7915 S   0  0  0  0  0  0  0  0  0  0  0  0
  105.4531    0.7039  -73.7728 S   0  0  0  0  0  0  0  0  0  0  0  0
  107.5336    0.6725  -73.7296 S   0  0  0  0  0  0  0  0  0  0  0  0
  108.1887    0.7780  -75.6951 S   0  0  0  0  0  0  0  0  0  0  0  0
  110.2541    0.7031  -75.6353 S   0  0  0  0  0  0  0  0  0  0  0  0
  110.8428    2.4435  -74.7046 S   0  0  0  0  0  0  0  0  0  0  0  0
   13.9651   -6.5700   -9.8948 H   0  0  0  0  0  0  0  0  0  0  0  0
    8.9041   -4.3580   -7.1075 H   0  0  0  0  0  0  0  0  0  0  0  0
   11.3048   -2.9044   -6.5690 H   0  0  0  0  0  0  0  0  0  0  0  0
  112.1821    2.3049  -74.7322 H   0  0  0  0  0  0  0  0  0  0  0  0
  1  2  1  0  0  0  0
  1 82  1  0  0  0  0
  2  3  1  0  0  0  0
  3  4  1  0  0  0  0
  4  5  1  0  0  0  0
  5  6  1  0  0  0  0
  6  7  1  0  0  0  0
  6 83  1  0  0  0  0
  7  8  1  0  0  0  0
  7 84  1  0  0  0  0
  8  9  1  0  0  0  0
  9 10  1  0  0  0  0
 10 11  1  0  0  0  0
 11 12  1  0  0  0  0
 12 13  1  0  0  0  0
 13 14  1  0  0  0  0
 14 15  1  0  0  0  0
 15 16  1  0  0  0  0
 16 17  1  0  0  0  0
 17 18  1  0  0  0  0
 18 19  1  0  0  0  0
 19 20  1  0  0  0  0
 20 21  1  0  0  0  0
 21 22  1  0  0  0  0
 22 23  1  0  0  0  0
 23 24  1  0  0  0  0
 24 25  1  0  0  0  0
 25 26  1  0  0  0  0
 26 27  1  0  0  0  0
 27 28  1  0  0  0  0
 28 29  1  0  0  0  0
 29 30  1  0  0  0  0
 30 31  1  0  0  0  0
 31 32  1  0  0  0  0
 32 33  1  0  0  0  0
 33 34  1  0  0  0  0
 34 35  1  0  0  0  0
 35 36  1  0  0  0  0
 36 37  1  0  0  0  0
 37 38  1  0  0  0  0
 38 39  1  0  0  0  0
 39 40  1  0  0  0  0
 40 41  1  0  0  0  0
 41 42  1  0  0  0  0
 42 43  1  0  0  0  0
 43 44  1  0  0  0  0
 44 45  1  0  0  0  0
 45 46  1  0  0  0  0
 46 47  1  0  0  0  0
 47 48  1  0  0  0  0
 48 49  1  0  0  0  0
 49 50  1  0  0  0  0
 50 51  1  0  0  0  0
 51 52  1  0  0  0  0
 52 53  1  0  0  0  0
 53 54  1  0  0  0  0
 54 55  1  0  0  0  0
 55 56  1  0  0  0  0
 56 57  1  0  0  0  0
 57 58  1  0  0  0  0
 58 59  1  0  0  0  0
 59 60  1  0  0  0  0
 60 61  1  0  0  0  0
 61 62  1  0  0  0  0
 62 63  1  0  0  0  0
 63 64  1  0  0  0  0
 64 65  1  0  0  0  0
 65 66  1  0  0  0  0
 66 67  1  0  0  0  0
 67 68  1  0  0  0  0
 68 69  1  0  0  0  0
 69 70  1  0  0  0  0
 70 71  1  0  0  0  0
 71 72  1  0  0  0  0
 72 73  1  0  0  0  0
 73 74  1  0  0  0  0
 74 75  1  0  0  0  0
 75 76  1  0  0  0  0
 76 77  1  0  0  0  0
 77 78  1  0  0  0  0
 78 79  1  0  0  0  0
 79 80  1  0  0  0  0
 80 81  1  0  0  0  0
 81 85  1  0  0  0  0
M  END
$$$$
