
 OpenBabel04232216483D

 82 82  0  0  0  0  0  0  0  0999 V2000
    1.0275   -0.1146   -0.0271 C   0  0  0  0  0  0  0  0  0  0  0  0
    2.5272   -0.0770   -0.0026 C   0  0  0  0  0  0  0  0  0  0  0  0
    3.1353    1.0752   -0.6493 C   0  0  0  0  0  0  0  0  0  0  0  0
    3.8508    2.0040    0.0070 C   0  0  0  0  0  0  0  0  0  0  0  0
    4.0806    1.9761    1.4464 C   0  0  0  0  0  0  0  0  0  0  0  0
    3.3273    3.0254    2.2174 C   0  0  0  0  0  0  0  0  0  0  0  0
    4.2509    3.9811    2.9542 C   0  0  0  0  0  0  0  0  0  0  0  0
    3.4519    5.0373    3.7070 C   0  0  0  0  0  0  0  0  0  0  0  0
    4.4147    5.9570    4.4421 C   0  0  0  0  0  0  0  0  0  0  0  0
    3.6666    7.0302    5.2127 C   0  0  0  0  0  0  0  0  0  0  0  0
    4.6534    7.9374    5.9345 C   0  0  0  0  0  0  0  0  0  0  0  0
    3.9060    9.0133    6.7061 C   0  0  0  0  0  0  0  0  0  0  0  0
    4.8781    9.9316    7.4340 C   0  0  0  0  0  0  0  0  0  0  0  0
    4.1193   11.0047    8.2009 C   0  0  0  0  0  0  0  0  0  0  0  0
    5.0858   11.9287    8.9321 C   0  0  0  0  0  0  0  0  0  0  0  0
    4.3317   13.0080    9.7023 C   0  0  0  0  0  0  0  0  0  0  0  0
    5.2962   13.9269   10.4325 C   0  0  0  0  0  0  0  0  0  0  0  0
    4.8147    1.0283    2.0544 C   0  0  0  0  0  0  0  0  0  0  0  0
    5.4110   -0.1019    1.3751 C   0  0  0  0  0  0  0  0  0  0  0  0
    4.7080   -1.0426    0.7115 C   0  0  0  0  0  0  0  0  0  0  0  0
    5.3907   -2.1678   -0.0206 C   0  0  0  0  0  0  0  0  0  0  0  0
    6.2766   -3.0120    0.8899 C   0  0  0  0  0  0  0  0  0  0  0  0
    6.9754   -4.1092    0.0982 C   0  0  0  0  0  0  0  0  0  0  0  0
    7.8550   -4.9316    1.0297 C   0  0  0  0  0  0  0  0  0  0  0  0
    8.5658   -6.0390    0.2682 C   0  0  0  0  0  0  0  0  0  0  0  0
    9.4367   -6.8578    1.2141 C   0  0  0  0  0  0  0  0  0  0  0  0
   10.1480   -7.9675    0.4518 C   0  0  0  0  0  0  0  0  0  0  0  0
   11.0217   -8.8003    1.3823 C   0  0  0  0  0  0  0  0  0  0  0  0
   11.7262   -9.9044    0.6134 C   0  0  0  0  0  0  0  0  0  0  0  0
    3.2510   -1.0312    0.6155 C   0  0  0  0  0  0  0  0  0  0  0  0
    0.6084    0.6989   -0.6304 H   0  0  0  0  0  0  0  0  0  0  0  0
    0.6293   -0.0024    0.9881 H   0  0  0  0  0  0  0  0  0  0  0  0
    0.6661   -1.0580   -0.4465 H   0  0  0  0  0  0  0  0  0  0  0  0
    2.9723    1.1759   -1.7166 H   0  0  0  0  0  0  0  0  0  0  0  0
    4.2618    2.8524   -0.5315 H   0  0  0  0  0  0  0  0  0  0  0  0
    2.6583    2.5238    2.9297 H   0  0  0  0  0  0  0  0  0  0  0  0
    2.6709    3.5972    1.5477 H   0  0  0  0  0  0  0  0  0  0  0  0
    4.9276    4.4687    2.2425 H   0  0  0  0  0  0  0  0  0  0  0  0
    4.8740    3.4294    3.6684 H   0  0  0  0  0  0  0  0  0  0  0  0
    2.7692    4.5592    4.4209 H   0  0  0  0  0  0  0  0  0  0  0  0
    2.8359    5.6163    3.0079 H   0  0  0  0  0  0  0  0  0  0  0  0
    5.0960    6.4262    3.7216 H   0  0  0  0  0  0  0  0  0  0  0  0
    5.0307    5.3684    5.1332 H   0  0  0  0  0  0  0  0  0  0  0  0
    2.9887    6.5643    5.9384 H   0  0  0  0  0  0  0  0  0  0  0  0
    3.0505    7.6218    4.5248 H   0  0  0  0  0  0  0  0  0  0  0  0
    5.3325    8.4013    5.2085 H   0  0  0  0  0  0  0  0  0  0  0  0
    5.2706    7.3450    6.6215 H   0  0  0  0  0  0  0  0  0  0  0  0
    3.2277    8.5443    7.4293 H   0  0  0  0  0  0  0  0  0  0  0  0
    3.2887    9.6005    6.0154 H   0  0  0  0  0  0  0  0  0  0  0  0
    5.5586   10.3983    6.7101 H   0  0  0  0  0  0  0  0  0  0  0  0
    5.4961    9.3432    8.1245 H   0  0  0  0  0  0  0  0  0  0  0  0
    3.4395   10.5326    8.9211 H   0  0  0  0  0  0  0  0  0  0  0  0
    3.5013   11.5873    7.5065 H   0  0  0  0  0  0  0  0  0  0  0  0
    5.7656   12.3956    8.2090 H   0  0  0  0  0  0  0  0  0  0  0  0
    5.7026   11.3419    9.6237 H   0  0  0  0  0  0  0  0  0  0  0  0
    3.6526   12.5438   10.4265 H   0  0  0  0  0  0  0  0  0  0  0  0
    3.7181   13.5985    9.0125 H   0  0  0  0  0  0  0  0  0  0  0  0
    5.9033   13.3637   11.1479 H   0  0  0  0  0  0  0  0  0  0  0  0
    4.7456   14.6962   10.9807 H   0  0  0  0  0  0  0  0  0  0  0  0
    5.9694   14.4235    9.7270 H   0  0  0  0  0  0  0  0  0  0  0  0
    4.9711    1.0533    3.1308 H   0  0  0  0  0  0  0  0  0  0  0  0
    6.4943   -0.1566    1.4327 H   0  0  0  0  0  0  0  0  0  0  0  0
    5.9894   -1.7387   -0.8345 H   0  0  0  0  0  0  0  0  0  0  0  0
    4.6495   -2.8193   -0.5015 H   0  0  0  0  0  0  0  0  0  0  0  0
    5.6722   -3.4566    1.6898 H   0  0  0  0  0  0  0  0  0  0  0  0
    7.0397   -2.3893    1.3728 H   0  0  0  0  0  0  0  0  0  0  0  0
    7.5878   -3.6642   -0.6958 H   0  0  0  0  0  0  0  0  0  0  0  0
    6.2328   -4.7546   -0.3864 H   0  0  0  0  0  0  0  0  0  0  0  0
    7.2407   -5.3657    1.8280 H   0  0  0  0  0  0  0  0  0  0  0  0
    8.5953   -4.2796    1.5099 H   0  0  0  0  0  0  0  0  0  0  0  0
    9.1851   -5.6050   -0.5264 H   0  0  0  0  0  0  0  0  0  0  0  0
    7.8269   -6.6899   -0.2149 H   0  0  0  0  0  0  0  0  0  0  0  0
    8.8154   -7.2888    2.0089 H   0  0  0  0  0  0  0  0  0  0  0  0
   10.1734   -6.2045    1.6979 H   0  0  0  0  0  0  0  0  0  0  0  0
   10.7646   -7.5289   -0.3425 H   0  0  0  0  0  0  0  0  0  0  0  0
    9.4053   -8.6119   -0.0346 H   0  0  0  0  0  0  0  0  0  0  0  0
   10.4081   -9.2419    2.1760 H   0  0  0  0  0  0  0  0  0  0  0  0
   11.7685   -8.1603    1.8660 H   0  0  0  0  0  0  0  0  0  0  0  0
   11.0001  -10.5730    0.1383 H   0  0  0  0  0  0  0  0  0  0  0  0
   12.3496  -10.4996    1.2863 H   0  0  0  0  0  0  0  0  0  0  0  0
   12.3692   -9.4863   -0.1672 H   0  0  0  0  0  0  0  0  0  0  0  0
    2.7469   -1.8693    1.0923 H   0  0  0  0  0  0  0  0  0  0  0  0
  1  2  1  0  0  0  0
  1 31  1  0  0  0  0
  1 32  1  0  0  0  0
  1 33  1  0  0  0  0
  2  3  1  0  0  0  0
  2 30  2  0  0  0  0
  3  4  2  0  0  0  0
  3 34  1  0  0  0  0
  4  5  1  0  0  0  0
  4 35  1  0  0  0  0
  5  6  1  0  0  0  0
  5 18  2  0  0  0  0
  6  7  1  0  0  0  0
  6 36  1  0  0  0  0
  6 37  1  0  0  0  0
  7  8  1  0  0  0  0
  7 38  1  0  0  0  0
  7 39  1  0  0  0  0
  8  9  1  0  0  0  0
  8 40  1  0  0  0  0
  8 41  1  0  0  0  0
  9 10  1  0  0  0  0
  9 42  1  0  0  0  0
  9 43  1  0  0  0  0
 10 11  1  0  0  0  0
 10 44  1  0  0  0  0
 10 45  1  0  0  0  0
 11 12  1  0  0  0  0
 11 46  1  0  0  0  0
 11 47  1  0  0  0  0
 12 13  1  0  0  0  0
 12 48  1  0  0  0  0
 12 49  1  0  0  0  0
 13 14  1  0  0  0  0
 13 50  1  0  0  0  0
 13 51  1  0  0  0  0
 14 15  1  0  0  0  0
 14 52  1  0  0  0  0
 14 53  1  0  0  0  0
 15 16  1  0  0  0  0
 15 54  1  0  0  0  0
 15 55  1  0  0  0  0
 16 17  1  0  0  0  0
 16 56  1  0  0  0  0
 16 57  1  0  0  0  0
 17 58  1  0  0  0  0
 17 59  1  0  0  0  0
 17 60  1  0  0  0  0
 18 19  1  0  0  0  0
 18 61  1  0  0  0  0
 19 20  2  0  0  0  0
 19 62  1  0  0  0  0
 20 21  1  0  0  0  0
 20 30  1  0  0  0  0
 21 22  1  0  0  0  0
 21 63  1  0  0  0  0
 21 64  1  0  0  0  0
 22 23  1  0  0  0  0
 22 65  1  0  0  0  0
 22 66  1  0  0  0  0
 23 24  1  0  0  0  0
 23 67  1  0  0  0  0
 23 68  1  0  0  0  0
 24 25  1  0  0  0  0
 24 69  1  0  0  0  0
 24 70  1  0  0  0  0
 25 26  1  0  0  0  0
 25 71  1  0  0  0  0
 25 72  1  0  0  0  0
 26 27  1  0  0  0  0
 26 73  1  0  0  0  0
 26 74  1  0  0  0  0
 27 28  1  0  0  0  0
 27 75  1  0  0  0  0
 27 76  1  0  0  0  0
 28 29  1  0  0  0  0
 28 77  1  0  0  0  0
 28 78  1  0  0  0  0
 29 79  1  0  0  0  0
 29 80  1  0  0  0  0
 29 81  1  0  0  0  0
 30 82  1  0  0  0  0
M  END
$$$$
