
 OpenBabel04232216503D

 37 37  0  0  0  0  0  0  0  0999 V2000
    5.2254    0.7405    1.7168 C   0  0  0  0  0  0  0  0  0  0  0  0
    6.0573    1.9138    1.1728 C   0  0  0  0  0  0  0  0  0  0  0  0
    5.4193    2.7192    0.3943 N   0  0  0  0  0  0  0  0  0  0  0  0
    4.9680    2.0675   -0.7486 C   0  0  0  0  0  0  0  0  0  0  0  0
    4.9428    2.8745   -1.8154 C   0  0  0  0  0  0  0  0  0  0  0  0
    4.2767    4.2030   -1.5357 C   0  0  0  0  0  0  0  0  0  0  0  0
    3.6597    4.8469   -2.7570 C   0  0  0  0  0  0  0  0  0  0  0  0
    3.0091    6.1452   -2.3180 C   0  0  0  0  0  0  0  0  0  0  0  0
    6.0060    2.7562   -2.7372 N   0  0  0  0  0  0  0  0  0  0  0  0
    6.9978    3.7275   -2.7236 C   0  0  0  0  0  0  0  0  0  0  0  0
    8.3263    3.5545   -2.7105 C   0  0  0  0  0  0  0  0  0  0  0  0
    9.1377    4.6240   -2.1596 C   0  0  0  0  0  0  0  0  0  0  0  0
   10.1885    4.2443   -1.4216 C   0  0  0  0  0  0  0  0  0  0  0  0
   10.1871    4.6070   -0.0339 C   0  0  0  0  0  0  0  0  0  0  0  0
    9.4052    4.0721    0.9432 C   0  0  0  0  0  0  0  0  0  0  0  0
    8.4077    3.0124    1.0664 C   0  0  0  0  0  0  0  0  0  0  0  0
    7.5766    1.9509    1.2053 C   0  0  0  0  0  0  0  0  0  0  0  0
    4.1563    1.0130    1.6336 H   0  0  0  0  0  0  0  0  0  0  0  0
    5.4001    0.5184    2.7674 H   0  0  0  0  0  0  0  0  0  0  0  0
    5.3492   -0.1537    1.0972 H   0  0  0  0  0  0  0  0  0  0  0  0
    5.3326    1.0471   -0.8882 H   0  0  0  0  0  0  0  0  0  0  0  0
    4.9835    4.8872   -1.0482 H   0  0  0  0  0  0  0  0  0  0  0  0
    3.4651    4.0450   -0.8057 H   0  0  0  0  0  0  0  0  0  0  0  0
    2.9157    4.1791   -3.2064 H   0  0  0  0  0  0  0  0  0  0  0  0
    4.4263    5.0467   -3.5117 H   0  0  0  0  0  0  0  0  0  0  0  0
    2.1300    5.9383   -1.6981 H   0  0  0  0  0  0  0  0  0  0  0  0
    2.7011    6.7315   -3.1841 H   0  0  0  0  0  0  0  0  0  0  0  0
    3.7045    6.7451   -1.7195 H   0  0  0  0  0  0  0  0  0  0  0  0
    6.4592    1.8465   -2.6203 H   0  0  0  0  0  0  0  0  0  0  0  0
    6.6045    4.7160   -2.5008 H   0  0  0  0  0  0  0  0  0  0  0  0
    8.7605    2.5618   -2.7704 H   0  0  0  0  0  0  0  0  0  0  0  0
    8.5987    5.5378   -1.8979 H   0  0  0  0  0  0  0  0  0  0  0  0
   10.7654    3.3543   -1.6650 H   0  0  0  0  0  0  0  0  0  0  0  0
   10.8991    5.3922    0.2342 H   0  0  0  0  0  0  0  0  0  0  0  0
    9.5961    4.5243    1.9205 H   0  0  0  0  0  0  0  0  0  0  0  0
    9.3154    2.3622    1.1622 H   0  0  0  0  0  0  0  0  0  0  0  0
    7.9769    0.9452    1.3262 H   0  0  0  0  0  0  0  0  0  0  0  0
  1  2  1  0  0  0  0
  1 18  1  0  0  0  0
  1 19  1  0  0  0  0
  1 20  1  0  0  0  0
  2  3  2  0  0  0  0
  2 17  1  0  0  0  0
  3  4  1  0  0  0  0
  4  5  2  0  0  0  0
  4 21  1  0  0  0  0
  5  6  1  0  0  0  0
  5  9  1  0  0  0  0
  6  7  1  0  0  0  0
  6 22  1  0  0  0  0
  6 23  1  0  0  0  0
  7  8  1  0  0  0  0
  7 24  1  0  0  0  0
  7 25  1  0  0  0  0
  8 26  1  0  0  0  0
  8 27  1  0  0  0  0
  8 28  1  0  0  0  0
  9 10  1  0  0  0  0
  9 29  1  0  0  0  0
 10 11  2  0  0  0  0
 10 30  1  0  0  0  0
 11 12  1  0  0  0  0
 11 31  1  0  0  0  0
 12 13  2  0  0  0  0
 12 32  1  0  0  0  0
 13 14  1  0  0  0  0
 13 33  1  0  0  0  0
 14 15  2  0  0  0  0
 14 34  1  0  0  0  0
 15 16  1  0  0  0  0
 15 35  1  0  0  0  0
 16 17  2  0  0  0  0
 16 36  1  0  0  0  0
 17 37  1  0  0  0  0
M  END
$$$$
