
 OpenBabel04232216573D

 95 94  0  0  0  0  0  0  0  0999 V2000
    9.4362   -2.7913   12.0945 N   0  0  0  0  0  0  0  0  0  0  0  0
    9.0032   -3.6025   10.9531 C   0  0  0  0  0  0  0  0  0  0  0  0
    9.5166   -3.0418    9.6364 C   0  0  0  0  0  0  0  0  0  0  0  0
   11.0482   -2.9784    9.5824 C   0  0  0  0  0  0  0  0  0  0  0  0
   11.5777   -2.4282    8.2487 C   0  0  0  0  0  0  0  0  0  0  0  0
   11.1203   -1.0380    8.0356 N   0  0  0  0  0  0  0  0  0  0  0  0
   11.6391   -0.5672    6.7639 N   0  0  0  0  0  0  0  0  0  0  0  0
   11.1902    0.7756    6.4683 N   0  0  0  0  0  0  0  0  0  0  0  0
   11.8869    1.2810    5.0456 S   0  0  0  0  0  0  0  0  0  0  0  0
   11.1650    3.2076    4.8912 S   0  0  0  0  0  0  0  0  0  0  0  0
   11.8836    4.2999    6.4996 S   0  0  0  0  0  0  0  0  0  0  0  0
   13.9557    4.3414    6.4311 S   0  0  0  0  0  0  0  0  0  0  0  0
   14.6098    5.4180    8.1087 S   0  0  0  0  0  0  0  0  0  0  0  0
   16.7123    5.4157    8.1044 S   0  0  0  0  0  0  0  0  0  0  0  0
   17.3963    6.5152    9.7678 S   0  0  0  0  0  0  0  0  0  0  0  0
   19.5061    6.5089    9.7586 S   0  0  0  0  0  0  0  0  0  0  0  0
   20.1974    7.6071   11.4218 S   0  0  0  0  0  0  0  0  0  0  0  0
   22.3073    7.5998   11.4107 S   0  0  0  0  0  0  0  0  0  0  0  0
   22.9987    8.6982   13.0740 S   0  0  0  0  0  0  0  0  0  0  0  0
   25.1083    8.6910   13.0632 S   0  0  0  0  0  0  0  0  0  0  0  0
   25.7992    9.7893   14.7265 S   0  0  0  0  0  0  0  0  0  0  0  0
   27.9086    9.7821   14.7156 S   0  0  0  0  0  0  0  0  0  0  0  0
   28.5993   10.8804   16.3789 S   0  0  0  0  0  0  0  0  0  0  0  0
   30.7087   10.8731   16.3678 S   0  0  0  0  0  0  0  0  0  0  0  0
   31.3994   11.9714   18.0311 S   0  0  0  0  0  0  0  0  0  0  0  0
   33.5088   11.9641   18.0201 S   0  0  0  0  0  0  0  0  0  0  0  0
   34.1994   13.0624   19.6833 S   0  0  0  0  0  0  0  0  0  0  0  0
   36.3088   13.0551   19.6723 S   0  0  0  0  0  0  0  0  0  0  0  0
   36.9994   14.1534   21.3355 S   0  0  0  0  0  0  0  0  0  0  0  0
   39.1088   14.1461   21.3245 S   0  0  0  0  0  0  0  0  0  0  0  0
   39.7994   15.2444   22.9877 S   0  0  0  0  0  0  0  0  0  0  0  0
   41.9088   15.2371   22.9767 S   0  0  0  0  0  0  0  0  0  0  0  0
   42.5994   16.3353   24.6399 S   0  0  0  0  0  0  0  0  0  0  0  0
   44.7087   16.3280   24.6289 S   0  0  0  0  0  0  0  0  0  0  0  0
   45.3994   17.4263   26.2921 S   0  0  0  0  0  0  0  0  0  0  0  0
   47.5087   17.4190   26.2811 S   0  0  0  0  0  0  0  0  0  0  0  0
   48.1994   18.5173   27.9443 S   0  0  0  0  0  0  0  0  0  0  0  0
   50.3087   18.5100   27.9333 S   0  0  0  0  0  0  0  0  0  0  0  0
   50.9994   19.6083   29.5965 S   0  0  0  0  0  0  0  0  0  0  0  0
   53.1087   19.6010   29.5855 S   0  0  0  0  0  0  0  0  0  0  0  0
   53.7993   20.6993   31.2487 S   0  0  0  0  0  0  0  0  0  0  0  0
   55.9087   20.6920   31.2377 S   0  0  0  0  0  0  0  0  0  0  0  0
   56.5993   21.7902   32.9009 S   0  0  0  0  0  0  0  0  0  0  0  0
   58.7087   21.7829   32.8899 S   0  0  0  0  0  0  0  0  0  0  0  0
   59.3993   22.8812   34.5531 S   0  0  0  0  0  0  0  0  0  0  0  0
   61.5087   22.8739   34.5421 S   0  0  0  0  0  0  0  0  0  0  0  0
   62.1993   23.9722   36.2054 S   0  0  0  0  0  0  0  0  0  0  0  0
   64.3087   23.9649   36.1943 S   0  0  0  0  0  0  0  0  0  0  0  0
   64.9994   25.0632   37.8576 S   0  0  0  0  0  0  0  0  0  0  0  0
   67.1092   25.0561   37.8469 S   0  0  0  0  0  0  0  0  0  0  0  0
   67.7986   26.1537   39.5090 S   0  0  0  0  0  0  0  0  0  0  0  0
   69.9071   26.1467   39.4985 S   0  0  0  0  0  0  0  0  0  0  0  0
   70.5968   27.2460   41.1632 S   0  0  0  0  0  0  0  0  0  0  0  0
   72.7034   27.2390   41.1527 S   0  0  0  0  0  0  0  0  0  0  0  0
   73.3953   28.3377   42.8165 S   0  0  0  0  0  0  0  0  0  0  0  0
   75.5057   28.3295   42.8041 S   0  0  0  0  0  0  0  0  0  0  0  0
   76.1979   29.4270   44.4662 S   0  0  0  0  0  0  0  0  0  0  0  0
   78.3083   29.4194   44.4547 S   0  0  0  0  0  0  0  0  0  0  0  0
   78.9995   30.5179   46.1183 S   0  0  0  0  0  0  0  0  0  0  0  0
   81.1086   30.5108   46.1075 S   0  0  0  0  0  0  0  0  0  0  0  0
   81.7993   31.6091   47.7708 S   0  0  0  0  0  0  0  0  0  0  0  0
   83.9086   31.6018   47.7597 S   0  0  0  0  0  0  0  0  0  0  0  0
   84.5993   32.7000   49.4230 S   0  0  0  0  0  0  0  0  0  0  0  0
   86.7086   32.6927   49.4119 S   0  0  0  0  0  0  0  0  0  0  0  0
   87.3992   33.7910   51.0752 S   0  0  0  0  0  0  0  0  0  0  0  0
   89.5086   33.7837   51.0641 S   0  0  0  0  0  0  0  0  0  0  0  0
   90.1992   34.8820   52.7273 S   0  0  0  0  0  0  0  0  0  0  0  0
   92.3084   34.8746   52.7162 S   0  0  0  0  0  0  0  0  0  0  0  0
   92.9988   35.9728   54.3793 S   0  0  0  0  0  0  0  0  0  0  0  0
   95.1077   35.9653   54.3680 S   0  0  0  0  0  0  0  0  0  0  0  0
   95.7974   37.0633   56.0308 S   0  0  0  0  0  0  0  0  0  0  0  0
   97.9053   37.0554   56.0188 S   0  0  0  0  0  0  0  0  0  0  0  0
   98.5930   38.1527   57.6806 S   0  0  0  0  0  0  0  0  0  0  0  0
  100.6980   38.1433   57.6664 S   0  0  0  0  0  0  0  0  0  0  0  0
  101.3814   39.2387   59.3255 S   0  0  0  0  0  0  0  0  0  0  0  0
  103.4793   39.2261   59.3051 S   0  0  0  0  0  0  0  0  0  0  0  0
  104.1499   40.3178   60.9595 S   0  0  0  0  0  0  0  0  0  0  0  0
  106.2327   40.2694   60.9400 S   0  0  0  0  0  0  0  0  0  0  0  0
  106.8941   41.4223   62.5354 S   0  0  0  0  0  0  0  0  0  0  0  0
  108.9591   41.3304   62.5265 S   0  0  0  0  0  0  0  0  0  0  0  0
  109.5477   42.2910   60.7986 S   0  0  0  0  0  0  0  0  0  0  0  0
    9.0521   -3.1547   12.9399 H   0  0  0  0  0  0  0  0  0  0  0  0
    9.0697   -1.8375   11.9842 H   0  0  0  0  0  0  0  0  0  0  0  0
    7.9048   -3.6377   10.9435 H   0  0  0  0  0  0  0  0  0  0  0  0
    9.3611   -4.6241   11.0947 H   0  0  0  0  0  0  0  0  0  0  0  0
    9.1044   -2.0320    9.4860 H   0  0  0  0  0  0  0  0  0  0  0  0
    9.1451   -3.6592    8.8108 H   0  0  0  0  0  0  0  0  0  0  0  0
   11.4492   -3.9991    9.7395 H   0  0  0  0  0  0  0  0  0  0  0  0
   11.4310   -2.3711   10.4060 H   0  0  0  0  0  0  0  0  0  0  0  0
   11.2504   -3.0844    7.4432 H   0  0  0  0  0  0  0  0  0  0  0  0
   12.6724   -2.4574    8.2838 H   0  0  0  0  0  0  0  0  0  0  0  0
   11.4350   -0.4690    8.7843 H   0  0  0  0  0  0  0  0  0  0  0  0
   11.2774   -1.1824    6.0297 H   0  0  0  0  0  0  0  0  0  0  0  0
   11.5284    1.3850    7.2371 H   0  0  0  0  0  0  0  0  0  0  0  0
  110.8881   42.1933   60.8931 H   0  0  0  0  0  0  0  0  0  0  0  0
  1  2  1  0  0  0  0
  1 82  1  0  0  0  0
  1 83  1  0  0  0  0
  2  3  1  0  0  0  0
  2 84  1  0  0  0  0
  2 85  1  0  0  0  0
  3  4  1  0  0  0  0
  3 86  1  0  0  0  0
  3 87  1  0  0  0  0
  4  5  1  0  0  0  0
  4 88  1  0  0  0  0
  4 89  1  0  0  0  0
  5  6  1  0  0  0  0
  5 90  1  0  0  0  0
  5 91  1  0  0  0  0
  6  7  1  0  0  0  0
  6 92  1  0  0  0  0
  7  8  1  0  0  0  0
  7 93  1  0  0  0  0
  8  9  1  0  0  0  0
  8 94  1  0  0  0  0
  9 10  1  0  0  0  0
 10 11  1  0  0  0  0
 11 12  1  0  0  0  0
 12 13  1  0  0  0  0
 13 14  1  0  0  0  0
 14 15  1  0  0  0  0
 15 16  1  0  0  0  0
 16 17  1  0  0  0  0
 17 18  1  0  0  0  0
 18 19  1  0  0  0  0
 19 20  1  0  0  0  0
 20 21  1  0  0  0  0
 21 22  1  0  0  0  0
 22 23  1  0  0  0  0
 23 24  1  0  0  0  0
 24 25  1  0  0  0  0
 25 26  1  0  0  0  0
 26 27  1  0  0  0  0
 27 28  1  0  0  0  0
 28 29  1  0  0  0  0
 29 30  1  0  0  0  0
 30 31  1  0  0  0  0
 31 32  1  0  0  0  0
 32 33  1  0  0  0  0
 33 34  1  0  0  0  0
 34 35  1  0  0  0  0
 35 36  1  0  0  0  0
 36 37  1  0  0  0  0
 37 38  1  0  0  0  0
 38 39  1  0  0  0  0
 39 40  1  0  0  0  0
 40 41  1  0  0  0  0
 41 42  1  0  0  0  0
 42 43  1  0  0  0  0
 43 44  1  0  0  0  0
 44 45  1  0  0  0  0
 45 46  1  0  0  0  0
 46 47  1  0  0  0  0
 47 48  1  0  0  0  0
 48 49  1  0  0  0  0
 49 50  1  0  0  0  0
 50 51  1  0  0  0  0
 51 52  1  0  0  0  0
 52 53  1  0  0  0  0
 53 54  1  0  0  0  0
 54 55  1  0  0  0  0
 55 56  1  0  0  0  0
 56 57  1  0  0  0  0
 57 58  1  0  0  0  0
 58 59  1  0  0  0  0
 59 60  1  0  0  0  0
 60 61  1  0  0  0  0
 61 62  1  0  0  0  0
 62 63  1  0  0  0  0
 63 64  1  0  0  0  0
 64 65  1  0  0  0  0
 65 66  1  0  0  0  0
 66 67  1  0  0  0  0
 67 68  1  0  0  0  0
 68 69  1  0  0  0  0
 69 70  1  0  0  0  0
 70 71  1  0  0  0  0
 71 72  1  0  0  0  0
 72 73  1  0  0  0  0
 73 74  1  0  0  0  0
 74 75  1  0  0  0  0
 75 76  1  0  0  0  0
 76 77  1  0  0  0  0
 77 78  1  0  0  0  0
 78 79  1  0  0  0  0
 79 80  1  0  0  0  0
 80 81  1  0  0  0  0
 81 95  1  0  0  0  0
M  END
$$$$
