
 OpenBabel04232216403D

 49 51  0  0  0  0  0  0  0  0999 V2000
    6.4097    8.2086    0.8786 C   0  0  0  0  0  0  0  0  0  0  0  0
    5.7988    7.9922   -0.2617 C   0  0  0  0  0  0  0  0  0  0  0  0
    6.2380    7.8370   -1.7159 C   0  0  0  0  0  0  0  0  0  0  0  0
    7.6704    8.1827   -2.0430 N   0  0  0  0  0  0  0  0  0  0  0  0
    8.5873    7.0243   -2.1209 C   0  0  0  0  0  0  0  0  0  0  0  0
   10.0426    7.0895   -2.5969 C   0  0  0  0  0  0  0  0  0  0  0  0
   11.1228    6.6310   -1.5579 C   0  0  0  0  0  0  0  0  0  0  0  0
   10.8338    6.7034   -0.0528 C   0  0  0  0  0  0  0  0  0  0  0  0
   11.3956    7.6894    0.7042 C   0  0  0  0  0  0  0  0  0  0  0  0
   11.8572    8.9568    0.0460 C   0  0  0  0  0  0  0  0  0  0  0  0
   13.3035    9.0527   -0.3413 C   0  0  0  0  0  0  0  0  0  0  0  0
   10.8715    9.7590   -0.4250 C   0  0  0  0  0  0  0  0  0  0  0  0
    9.4859    9.4478   -0.0349 C   0  0  0  0  0  0  0  0  0  0  0  0
   10.8939   10.7594   -1.4826 C   0  0  0  0  0  0  0  0  0  0  0  0
    9.8833   11.0487   -2.3416 C   0  0  0  0  0  0  0  0  0  0  0  0
    8.5899   10.6420   -2.5179 N   0  0  0  0  0  0  0  0  0  0  0  0
    7.8284    9.5985   -2.3783 C   0  0  0  0  0  0  0  0  0  0  0  0
    8.3673    5.8528   -1.4583 C   0  0  0  0  0  0  0  0  0  0  0  0
    8.5085    5.7957   -0.0139 C   0  0  0  0  0  0  0  0  0  0  0  0
    9.7710    5.7786    0.4907 C   0  0  0  0  0  0  0  0  0  0  0  0
   10.0602    4.4540    1.1077 C   0  0  0  0  0  0  0  0  0  0  0  0
   10.9131    3.6761    0.4388 C   0  0  0  0  0  0  0  0  0  0  0  0
   10.7588    3.2146   -0.9536 C   0  0  0  0  0  0  0  0  0  0  0  0
    9.9317    3.4732   -1.9881 C   0  0  0  0  0  0  0  0  0  0  0  0
    8.4141    4.2749   -2.2409 S   0  0  0  0  0  0  0  0  0  0  0  0
    5.8659    8.2892    1.8175 H   0  0  0  0  0  0  0  0  0  0  0  0
    7.4761    8.2733    0.9604 H   0  0  0  0  0  0  0  0  0  0  0  0
    4.6858    7.9153   -0.1907 H   0  0  0  0  0  0  0  0  0  0  0  0
    5.5627    8.4565   -2.3274 H   0  0  0  0  0  0  0  0  0  0  0  0
    6.0066    6.8131   -2.0385 H   0  0  0  0  0  0  0  0  0  0  0  0
   10.2991    8.0836   -2.9842 H   0  0  0  0  0  0  0  0  0  0  0  0
   10.1464    6.4203   -3.4561 H   0  0  0  0  0  0  0  0  0  0  0  0
   12.0427    7.1800   -1.7869 H   0  0  0  0  0  0  0  0  0  0  0  0
   11.4427    5.6085   -1.7777 H   0  0  0  0  0  0  0  0  0  0  0  0
   11.1368    7.7916    1.7595 H   0  0  0  0  0  0  0  0  0  0  0  0
   13.8324    8.1111   -0.1556 H   0  0  0  0  0  0  0  0  0  0  0  0
   13.8049    9.8404    0.2268 H   0  0  0  0  0  0  0  0  0  0  0  0
   13.4127    9.2741   -1.4088 H   0  0  0  0  0  0  0  0  0  0  0  0
    9.3202    8.6961    0.7273 H   0  0  0  0  0  0  0  0  0  0  0  0
    9.2300    8.9205   -0.9152 H   0  0  0  0  0  0  0  0  0  0  0  0
    8.8328   10.2948    0.1490 H   0  0  0  0  0  0  0  0  0  0  0  0
   11.8144   11.3374   -1.5745 H   0  0  0  0  0  0  0  0  0  0  0  0
   10.0812   11.9326   -2.9568 H   0  0  0  0  0  0  0  0  0  0  0  0
    6.7982    9.9784   -2.5016 H   0  0  0  0  0  0  0  0  0  0  0  0
    7.7145    5.1724    0.4110 H   0  0  0  0  0  0  0  0  0  0  0  0
    9.1062    3.9142    1.3136 H   0  0  0  0  0  0  0  0  0  0  0  0
   11.9525    3.9974    0.5286 H   0  0  0  0  0  0  0  0  0  0  0  0
   11.6087    2.5613   -1.2035 H   0  0  0  0  0  0  0  0  0  0  0  0
   10.2600    3.0007   -2.9068 H   0  0  0  0  0  0  0  0  0  0  0  0
  1  2  2  0  0  0  0
  1 26  1  0  0  0  0
  1 27  1  0  0  0  0
  2  3  1  0  0  0  0
  2 28  1  0  0  0  0
  3  4  1  0  0  0  0
  3 29  1  0  0  0  0
  3 30  1  0  0  0  0
  4  5  1  0  0  0  0
  4 17  1  0  0  0  0
  5  6  1  0  0  0  0
  5 18  2  0  0  0  0
  6  7  1  0  0  0  0
  6 31  1  0  0  0  0
  6 32  1  0  0  0  0
  7  8  1  0  0  0  0
  7 33  1  0  0  0  0
  7 34  1  0  0  0  0
  8  9  2  0  0  0  0
  8 20  1  0  0  0  0
  9 10  1  0  0  0  0
  9 35  1  0  0  0  0
 10 11  1  0  0  0  0
 10 12  2  0  0  0  0
 11 36  1  0  0  0  0
 11 37  1  0  0  0  0
 11 38  1  0  0  0  0
 12 13  1  0  0  0  0
 12 14  1  0  0  0  0
 13 39  1  0  0  0  0
 13 40  1  0  0  0  0
 13 41  1  0  0  0  0
 14 15  2  0  0  0  0
 14 42  1  0  0  0  0
 15 16  1  0  0  0  0
 15 43  1  0  0  0  0
 16 17  2  0  0  0  0
 17 44  1  0  0  0  0
 18 19  1  0  0  0  0
 18 25  1  0  0  0  0
 19 20  2  0  0  0  0
 19 45  1  0  0  0  0
 20 21  1  0  0  0  0
 21 22  2  0  0  0  0
 21 46  1  0  0  0  0
 22 23  1  0  0  0  0
 22 47  1  0  0  0  0
 23 24  2  0  0  0  0
 23 48  1  0  0  0  0
 24 25  1  0  0  0  0
 24 49  1  0  0  0  0
M  END
$$$$
