
 OpenBabel04232216543D

 53 54  0  0  1  0  0  0  0  0999 V2000
    0.7745    0.8599   -2.0887 C   0  0  0  0  0  0  0  0  0  0  0  0
    2.2880    0.9277   -2.2122 C   0  0  0  0  0  0  0  0  0  0  0  0
    2.9554    0.9600   -0.8361 C   0  0  0  0  0  0  0  0  0  0  0  0
    4.4794    1.0774   -0.9142 C   0  0  0  0  0  0  0  0  0  0  0  0
    4.9252    2.2945   -1.6142 N   0  0  0  0  0  0  0  0  0  0  0  0
    4.5403    3.6071   -1.0535 C   0  0  3  0  0  0  0  0  0  0  0  0
    5.1782    3.8309    0.3172 C   0  0  0  0  0  0  0  0  0  0  0  0
    4.9390    4.7524   -1.9709 C   0  0  0  0  0  0  0  0  0  0  0  0
    5.6447    4.6062   -3.1133 C   0  0  0  0  0  0  0  0  0  0  0  0
    6.0791    5.7499   -4.0057 C   0  0  0  0  0  0  0  0  0  0  0  0
    6.9356    5.5653   -4.8672 O   0  0  0  0  0  0  0  0  0  0  0  0
    5.3477    6.9187   -3.8610 N   0  0  0  0  0  0  0  0  0  0  0  0
    5.5385    8.0794   -4.5524 C   0  0  0  0  0  0  0  0  0  0  0  0
    6.6483    8.4281   -5.0992 N   0  0  0  0  0  0  0  0  0  0  0  0
    6.4883    9.6817   -5.6266 C   0  0  0  0  0  0  0  0  0  0  0  0
    5.0365   10.0765   -5.6201 C   0  0  0  0  0  0  0  0  0  0  0  0
    4.4135    9.0887   -4.6301 C   0  0  3  0  0  0  0  0  0  0  0  0
    3.0631    8.5656   -5.1515 C   0  0  0  0  0  0  0  0  0  0  0  0
    2.3286    7.6539   -4.1647 C   0  0  0  0  0  0  0  0  0  0  0  0
    0.9475    7.2175   -4.6453 C   0  0  0  0  0  0  0  0  0  0  0  0
    0.3355    6.2446   -3.6440 C   0  0  0  0  0  0  0  0  0  0  0  0
    7.3784   10.3958   -6.0614 O   0  0  0  0  0  0  0  0  0  0  0  0
    6.0504    3.2655   -3.4994 C   0  0  0  0  0  0  0  0  0  0  0  0
    5.6876    2.2091   -2.7671 C   0  0  0  0  0  0  0  0  0  0  0  0
    0.3146    0.8283   -3.0812 H   0  0  0  0  0  0  0  0  0  0  0  0
    0.3873    1.7393   -1.5637 H   0  0  0  0  0  0  0  0  0  0  0  0
    0.4641   -0.0339   -1.5388 H   0  0  0  0  0  0  0  0  0  0  0  0
    2.5491    1.8221   -2.7885 H   0  0  0  0  0  0  0  0  0  0  0  0
    2.6472    0.0603   -2.7778 H   0  0  0  0  0  0  0  0  0  0  0  0
    2.7078    0.0374   -0.2961 H   0  0  0  0  0  0  0  0  0  0  0  0
    2.5418    1.7807   -0.2394 H   0  0  0  0  0  0  0  0  0  0  0  0
    4.8719    0.1820   -1.4140 H   0  0  0  0  0  0  0  0  0  0  0  0
    4.9021    1.0562    0.0963 H   0  0  0  0  0  0  0  0  0  0  0  0
    3.4498    3.6519   -0.9546 H   0  0  0  0  0  0  0  0  0  0  0  0
    6.2717    3.7875    0.2607 H   0  0  0  0  0  0  0  0  0  0  0  0
    4.8510    3.0791    1.0418 H   0  0  0  0  0  0  0  0  0  0  0  0
    4.8987    4.8101    0.7229 H   0  0  0  0  0  0  0  0  0  0  0  0
    4.6298    5.7243   -1.6074 H   0  0  0  0  0  0  0  0  0  0  0  0
    4.5786    6.8924   -3.2223 H   0  0  0  0  0  0  0  0  0  0  0  0
    4.6514    9.9581   -6.6379 H   0  0  0  0  0  0  0  0  0  0  0  0
    4.9160   11.1124   -5.2942 H   0  0  0  0  0  0  0  0  0  0  0  0
    4.2964    9.5593   -3.6464 H   0  0  0  0  0  0  0  0  0  0  0  0
    3.2087    8.0276   -6.0962 H   0  0  0  0  0  0  0  0  0  0  0  0
    2.4202    9.4284   -5.3710 H   0  0  0  0  0  0  0  0  0  0  0  0
    2.2458    8.1511   -3.1912 H   0  0  0  0  0  0  0  0  0  0  0  0
    2.8921    6.7317   -4.0230 H   0  0  0  0  0  0  0  0  0  0  0  0
    1.0337    6.7211   -5.6189 H   0  0  0  0  0  0  0  0  0  0  0  0
    0.2918    8.0851   -4.7704 H   0  0  0  0  0  0  0  0  0  0  0  0
    0.9767    5.3655   -3.5100 H   0  0  0  0  0  0  0  0  0  0  0  0
   -0.6428    5.8995   -3.9888 H   0  0  0  0  0  0  0  0  0  0  0  0
    0.2087    6.7200   -2.6657 H   0  0  0  0  0  0  0  0  0  0  0  0
    6.6461    3.1371   -4.3984 H   0  0  0  0  0  0  0  0  0  0  0  0
    5.9820    1.2058   -3.0651 H   0  0  0  0  0  0  0  0  0  0  0  0
  1  2  1  0  0  0  0
  1 25  1  0  0  0  0
  1 26  1  0  0  0  0
  1 27  1  0  0  0  0
  2  3  1  0  0  0  0
  2 28  1  0  0  0  0
  2 29  1  0  0  0  0
  3  4  1  0  0  0  0
  3 30  1  0  0  0  0
  3 31  1  0  0  0  0
  4  5  1  0  0  0  0
  4 32  1  0  0  0  0
  4 33  1  0  0  0  0
  5  6  1  0  0  0  0
  5 24  1  0  0  0  0
  6  7  1  0  0  0  0
  6  8  1  0  0  0  0
  6 34  1  0  0  0  0
  7 35  1  0  0  0  0
  7 36  1  0  0  0  0
  7 37  1  0  0  0  0
  8  9  2  0  0  0  0
  8 38  1  0  0  0  0
  9 10  1  0  0  0  0
  9 23  1  0  0  0  0
 10 11  2  0  0  0  0
 10 12  1  0  0  0  0
 12 13  1  0  0  0  0
 12 39  1  0  0  0  0
 13 14  2  0  0  0  0
 13 17  1  0  0  0  0
 14 15  1  0  0  0  0
 15 16  1  0  0  0  0
 15 22  2  0  0  0  0
 16 17  1  0  0  0  0
 16 40  1  0  0  0  0
 16 41  1  0  0  0  0
 17 18  1  0  0  0  0
 17 42  1  0  0  0  0
 18 19  1  0  0  0  0
 18 43  1  0  0  0  0
 18 44  1  0  0  0  0
 19 20  1  0  0  0  0
 19 45  1  0  0  0  0
 19 46  1  0  0  0  0
 20 21  1  0  0  0  0
 20 47  1  0  0  0  0
 20 48  1  0  0  0  0
 21 49  1  0  0  0  0
 21 50  1  0  0  0  0
 21 51  1  0  0  0  0
 23 24  2  0  0  0  0
 23 52  1  0  0  0  0
 24 53  1  0  0  0  0
M  END
$$$$
