
 OpenBabel04232216433D

 22 22  0  0  0  0  0  0  0  0999 V2000
    3.8512   -1.7015   -0.2260 C   0  0  0  0  0  0  0  0  0  0  0  0
    3.5968   -0.3945    0.0080 C   0  0  0  0  0  0  0  0  0  0  0  0
    3.2475   -0.1041    1.4111 C   0  0  0  0  0  0  0  0  0  0  0  0
    4.3209    0.3010    2.1272 C   0  0  0  0  0  0  0  0  0  0  0  0
    5.0815   -0.7135    2.9649 C   0  0  0  0  0  0  0  0  0  0  0  0
    6.5287   -0.8868    2.4328 C   0  0  0  0  0  0  0  0  0  0  0  0
    6.9756   -2.3357    2.1546 C   0  0  0  0  0  0  0  0  0  0  0  0
    6.9446   -2.7375    0.6664 C   0  0  0  0  0  0  0  0  0  0  0  0
    5.5526   -2.9325    0.2562 N   0  0  0  0  0  0  0  0  0  0  0  0
    5.1309   -2.0779   -0.5583 N   0  0  0  0  0  0  0  0  0  0  0  0
    3.2975   -2.4543    0.3396 H   0  0  0  0  0  0  0  0  0  0  0  0
    4.2194    0.3548   -0.4775 H   0  0  0  0  0  0  0  0  0  0  0  0
    2.5949   -0.8604    1.8529 H   0  0  0  0  0  0  0  0  0  0  0  0
    4.9682    1.0684    1.7007 H   0  0  0  0  0  0  0  0  0  0  0  0
    4.5605   -1.6818    2.9650 H   0  0  0  0  0  0  0  0  0  0  0  0
    5.1087   -0.3663    4.0027 H   0  0  0  0  0  0  0  0  0  0  0  0
    7.1958   -0.4790    3.2024 H   0  0  0  0  0  0  0  0  0  0  0  0
    6.7131   -0.2797    1.5367 H   0  0  0  0  0  0  0  0  0  0  0  0
    6.3936   -3.0442    2.7557 H   0  0  0  0  0  0  0  0  0  0  0  0
    8.0177   -2.4283    2.4880 H   0  0  0  0  0  0  0  0  0  0  0  0
    7.4713   -1.9994    0.0492 H   0  0  0  0  0  0  0  0  0  0  0  0
    7.4725   -3.6918    0.5485 H   0  0  0  0  0  0  0  0  0  0  0  0
  1  2  2  3  0  0  0
  1 10  1  0  0  0  0
  1 11  1  0  0  0  0
  2  3  1  0  0  0  0
  2 12  1  0  0  0  0
  3  4  2  3  0  0  0
  3 13  1  0  0  0  0
  4  5  1  0  0  0  0
  4 14  1  0  0  0  0
  5  6  1  0  0  0  0
  5 15  1  0  0  0  0
  5 16  1  0  0  0  0
  6  7  1  0  0  0  0
  6 17  1  0  0  0  0
  6 18  1  0  0  0  0
  7  8  1  0  0  0  0
  7 19  1  0  0  0  0
  7 20  1  0  0  0  0
  8  9  1  0  0  0  0
  8 21  1  0  0  0  0
  8 22  1  0  0  0  0
  9 10  2  3  0  0  0
M  END
$$$$
