
 OpenBabel04232216463D

 53 54  0  0  1  0  0  0  0  0999 V2000
    6.5280   -0.1214   -2.0677 C   0  0  0  0  0  0  0  0  0  0  0  0
    7.2604   -1.3970   -2.5708 C   0  0  0  0  0  0  0  0  0  0  0  0
    6.3322   -1.9114   -3.6663 C   0  0  0  0  0  0  0  0  0  0  0  0
    6.6980   -3.1560   -3.4654 C   0  0  0  0  0  0  0  0  0  0  0  0
    8.2018   -3.1439   -4.3408 C   0  0  0  0  0  0  0  0  0  0  0  0
    9.5362   -1.9477   -4.1752 C   0  0  0  0  0  0  0  0  0  0  0  0
   10.7038   -1.6867   -2.9556 C   0  0  0  0  0  0  0  0  0  0  0  0
   10.5373   -1.4540   -1.3223 C   0  0  0  0  0  0  0  0  0  0  0  0
    9.6943   -2.2092    0.0470 C   0  0  3  0  0  0  0  0  0  0  0  0
    9.1879   -0.9910    0.8725 C   0  0  0  0  0  0  0  0  0  0  0  0
   10.2383    0.0570    1.2786 C   0  0  0  0  0  0  0  0  0  0  0  0
   11.1776   -0.3997    2.3809 C   0  0  0  0  0  0  0  0  0  0  0  0
   11.9646    0.6519    2.7313 F   0  0  0  0  0  0  0  0  0  0  0  0
    6.1880   -3.7048   -1.9628 C   0  0  0  0  0  0  0  0  0  0  0  0
    6.2000   -3.1846   -0.6342 C   0  0  0  0  0  0  0  0  0  0  0  0
    5.8644   -1.9174    0.1567 C   0  0  0  0  0  0  0  0  0  0  0  0
    7.2472   -3.6790    0.4128 C   0  0  0  0  0  0  0  0  0  0  0  0
    8.5825   -3.5319    0.1223 C   0  0  0  0  0  0  0  0  0  0  0  0
    8.7944   -4.3450   -1.0114 C   0  0  0  0  0  0  0  0  0  0  0  0
    8.4497   -5.8235   -1.1979 C   0  0  0  0  0  0  0  0  0  0  0  0
    8.9148   -3.5609   -2.0886 C   0  0  0  0  0  0  0  0  0  0  0  0
   10.2554   -4.1787   -2.6205 C   0  0  0  0  0  0  0  0  0  0  0  0
    8.3378   -2.0091   -2.0020 N   0  0  0  0  0  0  0  0  0  0  0  0
    5.5271   -0.4662   -1.7200 H   0  0  0  0  0  0  0  0  0  0  0  0
    6.2339    0.5450   -2.8857 H   0  0  0  0  0  0  0  0  0  0  0  0
    6.9703    0.4326   -1.2485 H   0  0  0  0  0  0  0  0  0  0  0  0
    5.3073   -1.5859   -3.5285 H   0  0  0  0  0  0  0  0  0  0  0  0
    7.8904   -2.9195   -5.3784 H   0  0  0  0  0  0  0  0  0  0  0  0
    8.5786   -4.1680   -4.4387 H   0  0  0  0  0  0  0  0  0  0  0  0
   10.1666   -2.1674   -5.0529 H   0  0  0  0  0  0  0  0  0  0  0  0
    9.1093   -0.9572   -4.3724 H   0  0  0  0  0  0  0  0  0  0  0  0
   11.1897   -0.7517   -3.2830 H   0  0  0  0  0  0  0  0  0  0  0  0
   11.5600   -2.3615   -3.1221 H   0  0  0  0  0  0  0  0  0  0  0  0
   10.1746   -0.4181   -1.3192 H   0  0  0  0  0  0  0  0  0  0  0  0
   11.5732   -1.3950   -0.9529 H   0  0  0  0  0  0  0  0  0  0  0  0
   10.5221   -2.6543    0.6161 H   0  0  0  0  0  0  0  0  0  0  0  0
    8.6399   -1.3198    1.7606 H   0  0  0  0  0  0  0  0  0  0  0  0
    8.4846   -0.4420    0.2413 H   0  0  0  0  0  0  0  0  0  0  0  0
    9.7170    0.9599    1.6181 H   0  0  0  0  0  0  0  0  0  0  0  0
   10.8379    0.4067    0.4337 H   0  0  0  0  0  0  0  0  0  0  0  0
   11.8280   -1.2091    2.0488 H   0  0  0  0  0  0  0  0  0  0  0  0
   10.6157   -0.7109    3.2643 H   0  0  0  0  0  0  0  0  0  0  0  0
    6.2807   -4.7831   -2.0651 H   0  0  0  0  0  0  0  0  0  0  0  0
    4.8428   -1.5662    0.0370 H   0  0  0  0  0  0  0  0  0  0  0  0
    6.5892   -1.1250    0.0195 H   0  0  0  0  0  0  0  0  0  0  0  0
    5.9558   -2.0777    1.2509 H   0  0  0  0  0  0  0  0  0  0  0  0
    6.8943   -4.6884    0.6606 H   0  0  0  0  0  0  0  0  0  0  0  0
    7.4309   -6.0794   -0.8598 H   0  0  0  0  0  0  0  0  0  0  0  0
    9.1528   -6.4550   -0.6497 H   0  0  0  0  0  0  0  0  0  0  0  0
    8.4483   -6.1181   -2.2510 H   0  0  0  0  0  0  0  0  0  0  0  0
   11.0964   -3.8862   -1.9715 H   0  0  0  0  0  0  0  0  0  0  0  0
   10.5008   -4.0532   -3.6739 H   0  0  0  0  0  0  0  0  0  0  0  0
   10.2959   -5.2687   -2.5266 H   0  0  0  0  0  0  0  0  0  0  0  0
  1  2  1  0  0  0  0
  1 24  1  0  0  0  0
  1 25  1  0  0  0  0
  1 26  1  0  0  0  0
  2  3  1  0  0  0  0
  2 23  2  0  0  0  0
  3  4  2  0  0  0  0
  3 27  1  0  0  0  0
  4  5  1  0  0  0  0
  4 14  1  0  0  0  0
  5  6  1  0  0  0  0
  5 28  1  0  0  0  0
  5 29  1  0  0  0  0
  6  7  1  0  0  0  0
  6 30  1  0  0  0  0
  6 31  1  0  0  0  0
  7  8  1  0  0  0  0
  7 32  1  0  0  0  0
  7 33  1  0  0  0  0
  8  9  1  0  0  0  0
  8 34  1  0  0  0  0
  8 35  1  0  0  0  0
  9 10  1  0  0  0  0
  9 18  1  0  0  0  0
  9 36  1  0  0  0  0
 10 11  1  0  0  0  0
 10 37  1  0  0  0  0
 10 38  1  0  0  0  0
 11 12  1  0  0  0  0
 11 39  1  0  0  0  0
 11 40  1  0  0  0  0
 12 13  1  0  0  0  0
 12 41  1  0  0  0  0
 12 42  1  0  0  0  0
 14 15  2  0  0  0  0
 14 43  1  0  0  0  0
 15 16  1  0  0  0  0
 15 17  1  0  0  0  0
 16 44  1  0  0  0  0
 16 45  1  0  0  0  0
 16 46  1  0  0  0  0
 17 18  2  0  0  0  0
 17 47  1  0  0  0  0
 18 19  1  0  0  0  0
 19 20  1  0  0  0  0
 19 21  2  0  0  0  0
 20 48  1  0  0  0  0
 20 49  1  0  0  0  0
 20 50  1  0  0  0  0
 21 22  1  0  0  0  0
 21 23  1  0  0  0  0
 22 51  1  0  0  0  0
 22 52  1  0  0  0  0
 22 53  1  0  0  0  0
M  END
$$$$
