
 OpenBabel04232216433D

 62 63  0  0  0  0  0  0  0  0999 V2000
    6.7732   -3.5905   -2.6754 C   0  0  0  0  0  0  0  0  0  0  0  0
    6.2489   -3.8963   -1.3295 C   0  0  0  0  0  0  0  0  0  0  0  0
    5.0086   -3.4269   -1.0399 C   0  0  0  0  0  0  0  0  0  0  0  0
    4.9930   -2.0663   -0.4762 C   0  0  0  0  0  0  0  0  0  0  0  0
    4.6012   -1.0832   -1.3178 C   0  0  0  0  0  0  0  0  0  0  0  0
    5.4593    0.0965   -1.4755 C   0  0  0  0  0  0  0  0  0  0  0  0
    5.8743    0.3716   -2.7299 C   0  0  0  0  0  0  0  0  0  0  0  0
    5.0204    0.6505   -3.9599 C   0  0  0  0  0  0  0  0  0  0  0  0
    5.3008    2.0903   -4.4580 C   0  0  0  0  0  0  0  0  0  0  0  0
    4.5330    2.5478   -5.6997 C   0  0  0  0  0  0  0  0  0  0  0  0
    3.0382    2.4453   -5.4660 C   0  0  0  0  0  0  0  0  0  0  0  0
    2.2405    2.9598   -6.6471 C   0  0  0  0  0  0  0  0  0  0  0  0
    0.7570    2.7964   -6.3447 C   0  0  0  0  0  0  0  0  0  0  0  0
   -0.0640    3.3030   -7.5214 C   0  0  0  0  0  0  0  0  0  0  0  0
   -1.5443    3.1768   -7.2504 C   0  0  0  0  0  0  0  0  0  0  0  0
   -2.1404    1.9268   -7.6564 C   0  0  0  0  0  0  0  0  0  0  0  0
   -3.4099    1.4765   -7.5730 C   0  0  0  0  0  0  0  0  0  0  0  0
   -3.5716    0.0576   -8.1214 C   0  0  0  0  0  0  0  0  0  0  0  0
   -4.5657    2.1270   -7.0610 N   0  0  0  0  0  0  0  0  0  0  0  0
   -5.8604    1.4010   -7.0882 C   0  0  0  0  0  0  0  0  0  0  0  0
   -4.5850    3.4490   -6.5338 C   0  0  0  0  0  0  0  0  0  0  0  0
   -5.9085    4.0518   -6.0610 C   0  0  0  0  0  0  0  0  0  0  0  0
   -3.5709    4.3188   -6.3741 C   0  0  0  0  0  0  0  0  0  0  0  0
   -2.1816    4.2012   -6.6788 C   0  0  0  0  0  0  0  0  0  0  0  0
    7.2568    0.1115   -3.0883 C   0  0  0  0  0  0  0  0  0  0  0  0
    7.8392   -1.1031   -3.2683 C   0  0  0  0  0  0  0  0  0  0  0  0
    7.3058   -2.4240   -3.0587 C   0  0  0  0  0  0  0  0  0  0  0  0
    6.5687   -4.3587   -3.4201 H   0  0  0  0  0  0  0  0  0  0  0  0
    7.0205   -3.8332   -0.5569 H   0  0  0  0  0  0  0  0  0  0  0  0
    4.2520   -3.5368   -1.8212 H   0  0  0  0  0  0  0  0  0  0  0  0
    5.7119   -1.8743    0.3202 H   0  0  0  0  0  0  0  0  0  0  0  0
    4.0329   -1.3540   -2.2077 H   0  0  0  0  0  0  0  0  0  0  0  0
    6.1886    0.1666   -0.6667 H   0  0  0  0  0  0  0  0  0  0  0  0
    3.9590    0.5176   -3.7267 H   0  0  0  0  0  0  0  0  0  0  0  0
    5.2600   -0.0680   -4.7549 H   0  0  0  0  0  0  0  0  0  0  0  0
    6.3646    2.2076   -4.6891 H   0  0  0  0  0  0  0  0  0  0  0  0
    5.0720    2.7934   -3.6483 H   0  0  0  0  0  0  0  0  0  0  0  0
    4.8332    1.9753   -6.5851 H   0  0  0  0  0  0  0  0  0  0  0  0
    4.7976    3.5938   -5.9031 H   0  0  0  0  0  0  0  0  0  0  0  0
    2.7723    3.0156   -4.5677 H   0  0  0  0  0  0  0  0  0  0  0  0
    2.7622    1.4019   -5.2913 H   0  0  0  0  0  0  0  0  0  0  0  0
    2.5023    2.3975   -7.5514 H   0  0  0  0  0  0  0  0  0  0  0  0
    2.4743    4.0145   -6.8353 H   0  0  0  0  0  0  0  0  0  0  0  0
    0.5036    3.3531   -5.4322 H   0  0  0  0  0  0  0  0  0  0  0  0
    0.5325    1.7406   -6.1431 H   0  0  0  0  0  0  0  0  0  0  0  0
    0.2129    2.7586   -8.4333 H   0  0  0  0  0  0  0  0  0  0  0  0
    0.1966    4.3510   -7.7180 H   0  0  0  0  0  0  0  0  0  0  0  0
   -1.4037    1.2500   -8.0903 H   0  0  0  0  0  0  0  0  0  0  0  0
   -2.6390   -0.3752   -8.4988 H   0  0  0  0  0  0  0  0  0  0  0  0
   -4.2724    0.0496   -8.9640 H   0  0  0  0  0  0  0  0  0  0  0  0
   -3.9214   -0.6197   -7.3349 H   0  0  0  0  0  0  0  0  0  0  0  0
   -5.8194    0.3819   -7.4750 H   0  0  0  0  0  0  0  0  0  0  0  0
   -6.5728    1.9327   -7.7290 H   0  0  0  0  0  0  0  0  0  0  0  0
   -6.2610    1.3097   -6.0724 H   0  0  0  0  0  0  0  0  0  0  0  0
   -6.7790    3.4023   -6.1355 H   0  0  0  0  0  0  0  0  0  0  0  0
   -6.1411    4.9474   -6.6506 H   0  0  0  0  0  0  0  0  0  0  0  0
   -5.8320    4.3411   -5.0055 H   0  0  0  0  0  0  0  0  0  0  0  0
   -3.8001    5.2982   -5.9507 H   0  0  0  0  0  0  0  0  0  0  0  0
   -1.5976    5.0773   -6.3975 H   0  0  0  0  0  0  0  0  0  0  0  0
    7.8343    1.0038   -3.3400 H   0  0  0  0  0  0  0  0  0  0  0  0
    8.8370   -1.0920   -3.6900 H   0  0  0  0  0  0  0  0  0  0  0  0
    7.7144   -2.2327   -2.0297 H   0  0  0  0  0  0  0  0  0  0  0  0
  1  2  1  0  0  0  0
  1 27  2  0  0  0  0
  1 28  1  0  0  0  0
  2  3  2  0  0  0  0
  2 29  1  0  0  0  0
  3  4  1  0  0  0  0
  3 30  1  0  0  0  0
  4  5  2  0  0  0  0
  4 31  1  0  0  0  0
  5  6  1  0  0  0  0
  5 32  1  0  0  0  0
  6  7  2  0  0  0  0
  6 33  1  0  0  0  0
  7  8  1  0  0  0  0
  7 25  1  0  0  0  0
  8  9  1  0  0  0  0
  8 34  1  0  0  0  0
  8 35  1  0  0  0  0
  9 10  1  0  0  0  0
  9 36  1  0  0  0  0
  9 37  1  0  0  0  0
 10 11  1  0  0  0  0
 10 38  1  0  0  0  0
 10 39  1  0  0  0  0
 11 12  1  0  0  0  0
 11 40  1  0  0  0  0
 11 41  1  0  0  0  0
 12 13  1  0  0  0  0
 12 42  1  0  0  0  0
 12 43  1  0  0  0  0
 13 14  1  0  0  0  0
 13 44  1  0  0  0  0
 13 45  1  0  0  0  0
 14 15  1  0  0  0  0
 14 46  1  0  0  0  0
 14 47  1  0  0  0  0
 15 16  1  0  0  0  0
 15 24  2  0  0  0  0
 16 17  2  0  0  0  0
 16 48  1  0  0  0  0
 17 18  1  0  0  0  0
 17 19  1  0  0  0  0
 18 49  1  0  0  0  0
 18 50  1  0  0  0  0
 18 51  1  0  0  0  0
 19 20  1  0  0  0  0
 19 21  1  0  0  0  0
 20 52  1  0  0  0  0
 20 53  1  0  0  0  0
 20 54  1  0  0  0  0
 21 22  1  0  0  0  0
 21 23  2  0  0  0  0
 22 55  1  0  0  0  0
 22 56  1  0  0  0  0
 22 57  1  0  0  0  0
 23 24  1  0  0  0  0
 23 58  1  0  0  0  0
 24 59  1  0  0  0  0
 25 26  2  0  0  0  0
 25 60  1  0  0  0  0
 26 27  1  0  0  0  0
 26 61  1  0  0  0  0
 27 62  1  0  0  0  0
M  END
$$$$
