
 OpenBabel04232216433D

 51 53  0  0  0  0  0  0  0  0999 V2000
    2.7339    1.0516   -0.8824 C   0  0  0  0  0  0  0  0  0  0  0  0
    3.1090    0.8613   -2.2443 C   0  0  0  0  0  3  0  0  0  0  0  0
    3.6916    1.9509   -2.9361 C   0  0  0  0  0  0  0  0  0  0  0  0
    5.0123    1.9109   -3.0727 C   0  0  0  0  0  0  0  0  0  0  0  0
    5.6823    3.1531   -2.8998 C   0  0  0  0  0  0  0  0  0  0  0  0
    7.1102    3.3389   -3.2189 C   0  0  0  0  0  0  0  0  0  0  0  0
    7.7159    2.2080   -4.0829 C   0  0  0  0  0  0  0  0  0  0  0  0
    7.0439    4.4327   -4.1581 N   0  0  0  0  0  0  0  0  0  0  0  0
    7.2640    5.6273   -3.9092 N   0  0  0  0  0  0  0  0  0  0  0  0
    7.6324    6.2366   -5.0987 C   0  0  0  0  0  0  0  0  0  0  0  0
    8.4277    5.6170   -5.9789 C   0  0  0  0  0  0  0  0  0  0  0  0
    9.4246    6.2374   -6.8557 C   0  0  0  0  0  0  0  0  0  0  0  0
   10.6115    5.7682   -6.5558 C   0  0  0  0  0  0  0  0  0  0  0  0
   11.0780    5.9185   -5.2342 N   0  0  0  0  0  0  0  0  0  0  0  0
   10.7877    4.9198   -4.5033 N   0  0  0  0  0  0  0  0  0  0  0  0
   10.3481    5.2907   -3.1091 C   0  0  0  0  0  0  0  0  0  0  0  0
    9.6044    3.9925   -2.2929 C   0  0  0  0  0  0  0  0  0  0  0  0
    7.9737    3.3992   -1.9608 C   0  0  0  0  0  0  0  0  0  0  0  0
    7.4808    2.6638   -0.8293 C   0  0  0  0  0  0  0  0  0  0  0  0
    5.9327    1.7607   -0.3625 C   0  0  0  0  0  0  0  0  0  0  0  0
    5.0261    0.9315    0.2794 N   0  0  0  0  0  0  0  0  0  0  0  0
    3.5298    0.7948    0.1668 C   0  0  0  0  0  0  0  0  0  0  0  0
    2.5702   -0.1966    1.1727 C   0  0  0  0  0  0  0  0  0  0  0  0
    0.9434   -0.5953    0.8466 C   0  0  0  0  0  0  0  0  0  0  0  0
    0.3619   -1.7120    0.2238 C   0  0  0  0  0  0  0  0  0  0  0  0
   -1.0835   -1.7439    0.2787 C   0  0  0  0  0  0  0  0  0  0  0  0
   -1.5990   -0.6506    0.9331 C   0  0  0  0  0  0  0  0  0  0  0  0
   -0.3411    0.3966    1.4681 S   0  0  0  0  0  0  0  0  0  0  0  0
    1.6497    1.0143   -0.7844 H   0  0  0  0  0  0  0  0  0  0  0  0
    3.4851   -0.1475   -2.4237 H   0  0  0  0  0  0  0  0  0  0  0  0
    3.1490    2.8882   -2.9020 H   0  0  0  0  0  0  0  0  0  0  0  0
    5.5671    0.9858   -2.9234 H   0  0  0  0  0  0  0  0  0  0  0  0
    5.1686    3.9647   -2.3877 H   0  0  0  0  0  0  0  0  0  0  0  0
    7.1837    2.1225   -5.0372 H   0  0  0  0  0  0  0  0  0  0  0  0
    7.7017    1.2363   -3.5814 H   0  0  0  0  0  0  0  0  0  0  0  0
    8.7581    2.4231   -4.3438 H   0  0  0  0  0  0  0  0  0  0  0  0
    7.4015    7.2841   -5.1619 H   0  0  0  0  0  0  0  0  0  0  0  0
    8.6612    4.5568   -5.7715 H   0  0  0  0  0  0  0  0  0  0  0  0
    9.2515    7.2995   -6.8402 H   0  0  0  0  0  0  0  0  0  0  0  0
   10.8563    4.7651   -6.9422 H   0  0  0  0  0  0  0  0  0  0  0  0
    9.7899    6.2368   -3.1191 H   0  0  0  0  0  0  0  0  0  0  0  0
   11.2987    5.5250   -2.5896 H   0  0  0  0  0  0  0  0  0  0  0  0
   10.0846    4.0547   -1.3096 H   0  0  0  0  0  0  0  0  0  0  0  0
   10.0773    3.1485   -2.8148 H   0  0  0  0  0  0  0  0  0  0  0  0
    8.2126    2.4743   -0.0334 H   0  0  0  0  0  0  0  0  0  0  0  0
    6.6507    1.1121    0.2276 H   0  0  0  0  0  0  0  0  0  0  0  0
    2.5279    0.2230    2.1837 H   0  0  0  0  0  0  0  0  0  0  0  0
    3.0471   -1.1862    1.2123 H   0  0  0  0  0  0  0  0  0  0  0  0
    0.9139   -2.5155   -0.2378 H   0  0  0  0  0  0  0  0  0  0  0  0
   -1.7148   -2.5452   -0.1308 H   0  0  0  0  0  0  0  0  0  0  0  0
   -2.6507   -0.4360    1.1239 H   0  0  0  0  0  0  0  0  0  0  0  0
  1  2  1  0  0  0  0
  1 22  2  3  0  0  0
  1 29  1  0  0  0  0
  2  3  1  0  0  0  0
  2 30  1  0  0  0  0
  3  4  2  3  0  0  0
  3 31  1  0  0  0  0
  4  5  1  0  0  0  0
  4 32  1  0  0  0  0
  5  6  2  0  0  0  0
  5 33  1  0  0  0  0
  6  7  1  0  0  0  0
  6  8  1  0  0  0  0
  6 18  1  0  0  0  0
  7 34  1  0  0  0  0
  7 35  1  0  0  0  0
  7 36  1  0  0  0  0
  8  9  2  3  0  0  0
  9 10  1  0  0  0  0
 10 11  2  3  0  0  0
 10 37  1  0  0  0  0
 11 12  1  0  0  0  0
 11 38  1  0  0  0  0
 12 13  2  3  0  0  0
 12 39  1  0  0  0  0
 13 14  1  0  0  0  0
 13 40  1  0  0  0  0
 14 15  2  3  0  0  0
 15 16  1  0  0  0  0
 16 17  1  0  0  0  0
 16 41  1  0  0  0  0
 16 42  1  0  0  0  0
 17 18  1  0  0  0  0
 17 43  1  0  0  0  0
 17 44  1  0  0  0  0
 18 19  2  3  0  0  0
 19 20  1  0  0  0  0
 19 45  1  0  0  0  0
 20 21  2  3  0  0  0
 20 46  1  0  0  0  0
 21 22  1  0  0  0  0
 22 23  1  0  0  0  0
 23 24  1  0  0  0  0
 23 47  1  0  0  0  0
 23 48  1  0  0  0  0
 24 25  2  0  0  0  0
 24 28  1  0  0  0  0
 25 26  1  0  0  0  0
 25 49  1  0  0  0  0
 26 27  2  0  0  0  0
 26 50  1  0  0  0  0
 27 28  1  0  0  0  0
 27 51  1  0  0  0  0
M  END
$$$$
