
 OpenBabel04232216503D

 54 54  0  0  0  0  0  0  0  0999 V2000
    7.3625   -4.7024   -3.8647 C   0  0  0  0  0  0  0  0  0  0  0  0
    8.0899   -3.9113   -5.0380 C   0  0  0  0  0  0  0  0  0  0  0  0
    7.2977   -2.7305   -5.2573 C   0  0  0  0  0  0  0  0  0  0  0  0
    6.3124   -1.8752   -4.1117 C   0  0  0  0  0  0  0  0  0  0  0  0
    6.4583   -0.5676   -3.6882 C   0  0  0  0  0  0  0  0  0  0  0  0
    7.3939   -0.3400   -2.4389 C   0  0  0  0  0  0  0  0  0  0  0  0
    8.5366   -1.2959   -2.7119 C   0  0  0  0  0  0  0  0  0  0  0  0
    9.9099   -0.9550   -3.1798 C   0  0  0  0  0  0  0  0  0  0  0  0
   10.0024   -1.0366   -4.7977 C   0  0  0  0  0  0  0  0  0  0  0  0
   11.4062   -1.3574   -4.9617 C   0  0  0  0  0  0  0  0  0  0  0  0
   11.7534   -1.6775   -6.3428 C   0  0  0  0  0  0  0  0  0  0  0  0
   12.9869   -1.8920   -6.4833 N   0  0  0  0  0  0  0  0  0  0  0  0
   13.1992   -1.9972   -7.7957 N   0  0  0  0  0  0  0  0  0  0  0  0
   14.4655   -2.3294   -7.9427 C   0  0  0  0  0  0  0  0  0  0  0  0
   14.9156   -2.3310   -9.1807 N   0  0  0  0  0  0  0  0  0  0  0  0
   15.9457   -3.0981   -9.7452 C   0  0  0  0  0  0  0  0  0  0  0  0
   15.1536   -3.8261  -10.6508 O   0  0  0  0  0  0  0  0  0  0  0  0
   15.7428   -4.9354  -11.2416 C   0  0  0  0  0  0  0  0  0  0  0  0
   16.1467   -5.9094  -10.1521 C   0  0  0  0  0  0  0  0  0  0  0  0
   15.2275   -5.9543   -8.6601 C   0  0  0  0  0  0  0  0  0  0  0  0
   13.5536   -5.3574   -8.1429 C   0  0  0  0  0  3  0  0  0  0  0  0
   12.4574   -5.4094   -6.7914 O   0  0  0  0  0  0  0  0  0  0  0  0
   10.8652   -4.6806   -6.5512 C   0  0  0  0  0  0  0  0  0  0  0  0
    9.7829   -4.4039   -5.4623 C   0  0  0  0  0  0  0  0  0  0  0  0
    6.7921   -5.5705   -4.2080 H   0  0  0  0  0  0  0  0  0  0  0  0
    6.5151   -4.1452   -3.4374 H   0  0  0  0  0  0  0  0  0  0  0  0
    7.9488   -4.8725   -2.9597 H   0  0  0  0  0  0  0  0  0  0  0  0
    6.3256   -3.0557   -5.6979 H   0  0  0  0  0  0  0  0  0  0  0  0
    6.0291   -2.4632   -3.2339 H   0  0  0  0  0  0  0  0  0  0  0  0
    6.6497    0.2353   -4.3954 H   0  0  0  0  0  0  0  0  0  0  0  0
    6.9188   -0.6011   -1.4801 H   0  0  0  0  0  0  0  0  0  0  0  0
    7.7479    0.6950   -2.3408 H   0  0  0  0  0  0  0  0  0  0  0  0
    8.2914   -1.5682   -3.6985 H   0  0  0  0  0  0  0  0  0  0  0  0
    8.4247   -2.2627   -2.2146 H   0  0  0  0  0  0  0  0  0  0  0  0
   10.5385   -1.7566   -2.7387 H   0  0  0  0  0  0  0  0  0  0  0  0
   10.2855    0.0012   -2.8200 H   0  0  0  0  0  0  0  0  0  0  0  0
    9.6176   -0.1231   -5.2574 H   0  0  0  0  0  0  0  0  0  0  0  0
    9.4565   -1.9038   -5.1725 H   0  0  0  0  0  0  0  0  0  0  0  0
   11.7582   -2.2302   -4.3677 H   0  0  0  0  0  0  0  0  0  0  0  0
   12.0469   -0.4749   -4.6774 H   0  0  0  0  0  0  0  0  0  0  0  0
   10.9480   -1.8071   -7.1232 H   0  0  0  0  0  0  0  0  0  0  0  0
   15.2179   -2.5720   -7.1218 H   0  0  0  0  0  0  0  0  0  0  0  0
   14.0888   -2.5813   -9.7210 H   0  0  0  0  0  0  0  0  0  0  0  0
   16.5101   -3.6712   -8.9994 H   0  0  0  0  0  0  0  0  0  0  0  0
   16.6506   -2.4583  -10.2783 H   0  0  0  0  0  0  0  0  0  0  0  0
   15.0014   -5.4068  -11.8928 H   0  0  0  0  0  0  0  0  0  0  0  0
   16.5487   -4.5872  -11.9128 H   0  0  0  0  0  0  0  0  0  0  0  0
   17.2101   -5.6397   -9.9306 H   0  0  0  0  0  0  0  0  0  0  0  0
   16.2835   -6.9028  -10.6138 H   0  0  0  0  0  0  0  0  0  0  0  0
   15.4279   -6.9776   -8.3052 H   0  0  0  0  0  0  0  0  0  0  0  0
   15.9338   -5.3605   -8.0384 H   0  0  0  0  0  0  0  0  0  0  0  0
   14.1528   -5.3122   -7.1789 H   0  0  0  0  0  0  0  0  0  0  0  0
   11.6186   -4.6298   -5.6849 H   0  0  0  0  0  0  0  0  0  0  0  0
   10.1815   -4.4738   -4.4330 H   0  0  0  0  0  0  0  0  0  0  0  0
  1  2  1  0  0  0  0
  1 25  1  0  0  0  0
  1 26  1  0  0  0  0
  1 27  1  0  0  0  0
  2  3  2  3  0  0  0
  2 24  1  0  0  0  0
  3  4  1  0  0  0  0
  3 28  1  0  0  0  0
  4  5  2  3  0  0  0
  4 29  1  0  0  0  0
  5  6  1  0  0  0  0
  5 30  1  0  0  0  0
  6  7  1  0  0  0  0
  6 31  1  0  0  0  0
  6 32  1  0  0  0  0
  7  8  1  0  0  0  0
  7 33  1  0  0  0  0
  7 34  1  0  0  0  0
  8  9  1  0  0  0  0
  8 35  1  0  0  0  0
  8 36  1  0  0  0  0
  9 10  1  0  0  0  0
  9 37  1  0  0  0  0
  9 38  1  0  0  0  0
 10 11  1  0  0  0  0
 10 39  1  0  0  0  0
 10 40  1  0  0  0  0
 11 12  2  3  0  0  0
 11 41  1  0  0  0  0
 12 13  1  0  0  0  0
 13 14  2  3  0  0  0
 14 15  1  0  0  0  0
 14 42  1  0  0  0  0
 15 16  1  0  0  0  0
 15 43  1  0  0  0  0
 16 17  1  0  0  0  0
 16 44  1  0  0  0  0
 16 45  1  0  0  0  0
 17 18  1  0  0  0  0
 18 19  1  0  0  0  0
 18 46  1  0  0  0  0
 18 47  1  0  0  0  0
 19 20  1  0  0  0  0
 19 48  1  0  0  0  0
 19 49  1  0  0  0  0
 20 21  1  0  0  0  0
 20 50  1  0  0  0  0
 20 51  1  0  0  0  0
 21 22  1  0  0  0  0
 21 52  1  0  0  0  0
 22 23  1  0  0  0  0
 23 24  2  3  0  0  0
 23 53  1  0  0  0  0
 24 54  1  0  0  0  0
M  END
$$$$
