
 OpenBabel04232216443D

 67 69  0  0  0  0  0  0  0  0999 V2000
    8.8512   -3.5030    6.7723 C   0  0  0  0  0  0  0  0  0  0  0  0
   10.2729   -4.3132    6.5919 C   0  0  0  0  0  0  0  0  0  0  0  0
   11.4605   -3.3264    6.4931 C   0  0  0  0  0  0  0  0  0  0  0  0
   12.9897   -3.1544    7.5697 C   0  0  0  0  0  0  0  0  0  0  0  0
   14.5070   -4.0124    8.4039 C   0  0  0  0  0  0  0  0  0  0  0  0
   16.2009   -4.7253    8.1826 C   0  0  0  0  0  0  0  0  0  0  0  0
   17.0787   -6.1622    8.7790 C   0  0  0  0  0  0  0  0  0  0  0  0
   16.9545   -7.6059    8.1201 C   0  0  0  0  0  0  0  0  0  0  0  0
   15.6630   -8.2379    8.6114 C   0  0  0  0  0  0  0  0  0  0  0  0
   14.7030   -7.1327    8.2474 C   0  0  0  0  0  0  0  0  0  0  0  0
   13.3438   -7.4536    7.8425 C   0  0  0  0  0  0  0  0  0  0  0  0
   12.8091   -6.0579    7.4271 C   0  0  0  0  0  0  0  0  0  0  0  0
   11.8973   -5.6592    8.3617 C   0  0  0  0  0  0  0  0  0  0  0  0
   10.9877   -6.5763    9.1140 C   0  0  0  0  0  0  0  0  0  0  0  0
   10.1508   -7.4680    8.4939 C   0  0  0  0  0  0  0  0  0  0  0  0
    8.9439   -6.9886    7.8218 C   0  0  0  0  0  0  0  0  0  0  0  0
    8.8933   -6.2185    6.7652 C   0  0  0  0  0  0  0  0  0  0  0  0
   11.0572   -2.4579    5.4959 C   0  0  0  0  0  0  0  0  0  0  0  0
   10.0933   -2.9396    4.4054 C   0  0  0  0  0  0  0  0  0  0  0  0
    9.2334   -2.3747    3.5289 C   0  0  0  0  0  0  0  0  0  0  0  0
    9.3115   -2.9493    2.1554 C   0  0  0  0  0  0  0  0  0  0  0  0
   10.4863   -2.5649    1.5708 C   0  0  0  0  0  0  0  0  0  0  0  0
   11.6839   -3.3618    1.9806 C   0  0  0  0  0  0  0  0  0  0  0  0
   12.6504   -2.9624    2.8676 C   0  0  0  0  0  0  0  0  0  0  0  0
   12.9985   -3.9523    3.9478 C   0  0  0  0  0  0  0  0  0  0  0  0
   13.7007   -4.0903    5.1237 C   0  0  0  0  0  0  0  0  0  0  0  0
   13.4926   -5.4199    6.0432 C   0  0  0  0  0  0  0  0  0  0  0  0
   13.4567   -6.3929    5.1091 C   0  0  0  0  0  0  0  0  0  0  0  0
   12.1655   -7.0186    4.9192 C   0  0  0  0  0  0  0  0  0  0  0  0
   10.9467   -6.6715    5.3370 C   0  0  0  0  0  0  0  0  0  0  0  0
   10.1296   -5.6357    6.1207 C   0  0  0  0  0  0  0  0  0  0  0  0
    8.8949   -2.4407    6.5044 H   0  0  0  0  0  0  0  0  0  0  0  0
    8.4045   -3.5378    7.7655 H   0  0  0  0  0  0  0  0  0  0  0  0
    8.1046   -3.8752    6.0376 H   0  0  0  0  0  0  0  0  0  0  0  0
   12.4945   -2.8251    8.5010 H   0  0  0  0  0  0  0  0  0  0  0  0
   13.4456   -2.2352    7.1749 H   0  0  0  0  0  0  0  0  0  0  0  0
   14.8970   -3.0454    8.7855 H   0  0  0  0  0  0  0  0  0  0  0  0
   14.1182   -4.4748    9.3240 H   0  0  0  0  0  0  0  0  0  0  0  0
   16.5988   -4.5222    7.1762 H   0  0  0  0  0  0  0  0  0  0  0  0
   16.7559   -4.0433    8.8633 H   0  0  0  0  0  0  0  0  0  0  0  0
   16.9257   -6.2875    9.8668 H   0  0  0  0  0  0  0  0  0  0  0  0
   18.1592   -5.9521    8.6892 H   0  0  0  0  0  0  0  0  0  0  0  0
   17.7782   -8.2966    8.3498 H   0  0  0  0  0  0  0  0  0  0  0  0
   16.9509   -7.5119    7.0229 H   0  0  0  0  0  0  0  0  0  0  0  0
   15.6872   -8.3932    9.6976 H   0  0  0  0  0  0  0  0  0  0  0  0
   15.4089   -9.1970    8.1429 H   0  0  0  0  0  0  0  0  0  0  0  0
   15.1296   -6.6138    7.3893 H   0  0  0  0  0  0  0  0  0  0  0  0
   14.6775   -6.4867    9.1309 H   0  0  0  0  0  0  0  0  0  0  0  0
   12.9051   -7.8660    8.7578 H   0  0  0  0  0  0  0  0  0  0  0  0
   13.2589   -8.2171    7.0731 H   0  0  0  0  0  0  0  0  0  0  0  0
   11.4868   -4.6766    8.4900 H   0  0  0  0  0  0  0  0  0  0  0  0
   11.3372   -6.8181   10.1033 H   0  0  0  0  0  0  0  0  0  0  0  0
   10.6319   -8.0351    7.6835 H   0  0  0  0  0  0  0  0  0  0  0  0
    8.0174   -7.2566    8.3370 H   0  0  0  0  0  0  0  0  0  0  0  0
    7.9440   -5.9174    6.3401 H   0  0  0  0  0  0  0  0  0  0  0  0
   11.5866   -1.5283    5.2764 H   0  0  0  0  0  0  0  0  0  0  0  0
   10.2668   -4.0009    4.1706 H   0  0  0  0  0  0  0  0  0  0  0  0
    8.8387   -1.3731    3.5858 H   0  0  0  0  0  0  0  0  0  0  0  0
    9.0344   -4.0143    2.1102 H   0  0  0  0  0  0  0  0  0  0  0  0
   10.6679   -1.4904    1.5921 H   0  0  0  0  0  0  0  0  0  0  0  0
   11.4449   -4.4302    1.9354 H   0  0  0  0  0  0  0  0  0  0  0  0
   12.8158   -1.9015    3.0581 H   0  0  0  0  0  0  0  0  0  0  0  0
   12.2885   -4.7628    3.8143 H   0  0  0  0  0  0  0  0  0  0  0  0
   14.4222   -3.3314    5.4301 H   0  0  0  0  0  0  0  0  0  0  0  0
   14.0462   -6.2778    4.1929 H   0  0  0  0  0  0  0  0  0  0  0  0
   12.3274   -7.9630    4.4040 H   0  0  0  0  0  0  0  0  0  0  0  0
   10.2381   -7.4580    5.0545 H   0  0  0  0  0  0  0  0  0  0  0  0
  1  2  1  0  0  0  0
  1 32  1  0  0  0  0
  1 33  1  0  0  0  0
  1 34  1  0  0  0  0
  2  3  1  0  0  0  0
  2 31  2  3  0  0  0
  3  4  1  0  0  0  0
  3 18  2  3  0  0  0
  4  5  1  0  0  0  0
  4 35  1  0  0  0  0
  4 36  1  0  0  0  0
  5  6  1  0  0  0  0
  5 37  1  0  0  0  0
  5 38  1  0  0  0  0
  6  7  1  0  0  0  0
  6 39  1  0  0  0  0
  6 40  1  0  0  0  0
  7  8  1  0  0  0  0
  7 41  1  0  0  0  0
  7 42  1  0  0  0  0
  8  9  1  0  0  0  0
  8 43  1  0  0  0  0
  8 44  1  0  0  0  0
  9 10  1  0  0  0  0
  9 45  1  0  0  0  0
  9 46  1  0  0  0  0
 10 11  1  0  0  0  0
 10 47  1  0  0  0  0
 10 48  1  0  0  0  0
 11 12  1  0  0  0  0
 11 49  1  0  0  0  0
 11 50  1  0  0  0  0
 12 13  2  3  0  0  0
 12 27  1  0  0  0  0
 13 14  1  0  0  0  0
 13 51  1  0  0  0  0
 14 15  2  3  0  0  0
 14 52  1  0  0  0  0
 15 16  1  0  0  0  0
 15 53  1  0  0  0  0
 16 17  2  3  0  0  0
 16 54  1  0  0  0  0
 17 31  1  0  0  0  0
 17 55  1  0  0  0  0
 18 19  1  0  0  0  0
 18 56  1  0  0  0  0
 19 20  2  3  0  0  0
 19 57  1  0  0  0  0
 20 21  1  0  0  0  0
 20 58  1  0  0  0  0
 21 22  2  3  0  0  0
 21 59  1  0  0  0  0
 22 23  1  0  0  0  0
 22 60  1  0  0  0  0
 23 24  2  3  0  0  0
 23 61  1  0  0  0  0
 24 25  1  0  0  0  0
 24 62  1  0  0  0  0
 25 26  2  3  0  0  0
 25 63  1  0  0  0  0
 26 27  1  0  0  0  0
 26 64  1  0  0  0  0
 27 28  2  3  0  0  0
 28 29  1  0  0  0  0
 28 65  1  0  0  0  0
 29 30  2  3  0  0  0
 29 66  1  0  0  0  0
 30 31  1  0  0  0  0
 30 67  1  0  0  0  0
M  END
$$$$
