
 OpenBabel04232216503D

 33 33  0  0  1  0  0  0  0  0999 V2000
    3.8257    0.3785    2.2490 C   0  0  0  0  0  0  0  0  0  0  0  0
    4.9505   -0.6452    2.1033 C   0  0  3  0  0  0  0  0  0  0  0  0
    4.3277   -1.9993    1.9036 C   0  0  0  0  0  0  0  0  0  0  0  0
    4.3525   -2.6625    0.7299 C   0  0  0  0  0  0  0  0  0  0  0  0
    4.6691   -4.0685    0.8831 C   0  0  0  0  0  0  0  0  0  0  0  0
    5.9888   -4.2790    0.9759 C   0  0  0  0  0  0  0  0  0  0  0  0
    6.6113   -4.9262    2.1752 C   0  0  0  0  0  0  0  0  0  0  0  0
    8.1110   -4.6216    2.1710 C   0  0  0  0  0  0  0  0  0  0  0  0
    8.7806   -4.8058    3.5324 C   0  0  0  0  0  0  0  0  0  0  0  0
    9.3762   -3.4905    4.0505 C   0  0  0  0  0  0  0  0  0  0  0  0
    8.4064   -2.5259    4.7593 C   0  0  0  0  0  0  0  0  0  0  0  0
    7.0918   -2.4293    4.2001 O   0  0  0  0  0  0  0  0  0  0  0  0
    7.1068   -1.4183    3.1384 O   0  0  0  0  0  0  0  0  0  0  0  0
    5.9126   -0.7078    3.2814 C   0  0  0  0  0  3  0  0  0  0  0  0
    2.9858    0.1493    1.5757 H   0  0  0  0  0  0  0  0  0  0  0  0
    4.1801    1.3773    1.9738 H   0  0  0  0  0  0  0  0  0  0  0  0
    3.4296    0.4232    3.2681 H   0  0  0  0  0  0  0  0  0  0  0  0
    5.5381   -0.3742    1.2165 H   0  0  0  0  0  0  0  0  0  0  0  0
    4.1086   -2.5423    2.8194 H   0  0  0  0  0  0  0  0  0  0  0  0
    4.6530   -2.1800   -0.1953 H   0  0  0  0  0  0  0  0  0  0  0  0
    3.9675   -4.6673    1.4792 H   0  0  0  0  0  0  0  0  0  0  0  0
    6.6325   -3.5389    0.4795 H   0  0  0  0  0  0  0  0  0  0  0  0
    6.4324   -6.0012    2.1858 H   0  0  0  0  0  0  0  0  0  0  0  0
    6.1540   -4.5036    3.0829 H   0  0  0  0  0  0  0  0  0  0  0  0
    8.2991   -3.6019    1.8154 H   0  0  0  0  0  0  0  0  0  0  0  0
    8.5874   -5.2817    1.4359 H   0  0  0  0  0  0  0  0  0  0  0  0
    9.6025   -5.5189    3.3935 H   0  0  0  0  0  0  0  0  0  0  0  0
    8.1057   -5.2499    4.2738 H   0  0  0  0  0  0  0  0  0  0  0  0
    9.8718   -2.9644    3.2249 H   0  0  0  0  0  0  0  0  0  0  0  0
   10.1807   -3.7395    4.7556 H   0  0  0  0  0  0  0  0  0  0  0  0
    8.2760   -2.8972    5.7824 H   0  0  0  0  0  0  0  0  0  0  0  0
    8.8644   -1.5328    4.8516 H   0  0  0  0  0  0  0  0  0  0  0  0
    6.1091    0.1650    3.8908 H   0  0  0  0  0  0  0  0  0  0  0  0
  1  2  1  0  0  0  0
  1 15  1  0  0  0  0
  1 16  1  0  0  0  0
  1 17  1  0  0  0  0
  2  3  1  0  0  0  0
  2 14  1  0  0  0  0
  2 18  1  0  0  0  0
  3  4  2  3  0  0  0
  3 19  1  0  0  0  0
  4  5  1  0  0  0  0
  4 20  1  0  0  0  0
  5  6  2  3  0  0  0
  5 21  1  0  0  0  0
  6  7  1  0  0  0  0
  6 22  1  0  0  0  0
  7  8  1  0  0  0  0
  7 23  1  0  0  0  0
  7 24  1  0  0  0  0
  8  9  1  0  0  0  0
  8 25  1  0  0  0  0
  8 26  1  0  0  0  0
  9 10  1  0  0  0  0
  9 27  1  0  0  0  0
  9 28  1  0  0  0  0
 10 11  1  0  0  0  0
 10 29  1  0  0  0  0
 10 30  1  0  0  0  0
 11 12  1  0  0  0  0
 11 31  1  0  0  0  0
 11 32  1  0  0  0  0
 12 13  1  0  0  0  0
 13 14  1  0  0  0  0
 14 33  1  0  0  0  0
M  END
$$$$
