
 OpenBabel04232216583D

 38 37  0  0  0  0  0  0  0  0999 V2000
   10.6032    7.5830    3.2582 N   0  0  0  0  0  0  0  0  0  0  0  0
   10.0424    6.3235    3.5600 N   0  0  0  0  0  0  0  0  0  0  0  0
   10.4900    5.4453    2.5385 N   0  0  0  0  0  0  0  0  0  0  0  0
   10.1171    4.0538    2.8281 C   0  0  0  0  0  0  0  0  0  0  0  0
    8.6589    3.8516    2.7523 N   0  0  0  0  0  0  0  0  0  0  0  0
    8.1249    4.4436    1.5465 N   0  0  0  0  0  0  0  0  0  0  0  0
    8.4093    3.6003    0.4467 N   0  0  0  0  0  0  0  0  0  0  0  0
    7.9383    4.1357   -0.7808 N   0  0  0  0  0  0  0  0  0  0  0  0
    8.5628    5.3600   -1.1919 N   0  0  0  0  0  0  0  0  0  0  0  0
   10.0007    5.3027   -1.1149 N   0  0  0  0  0  0  0  0  0  0  0  0
   10.5131    4.4754   -2.2117 C   0  0  0  0  0  0  0  0  0  0  0  0
   12.0423    4.4477   -2.1815 C   0  0  0  0  0  0  0  0  0  0  0  0
   12.5702    3.5047   -3.2641 C   0  0  0  0  0  0  0  0  0  0  0  0
   14.0957    3.4566   -3.2879 C   0  0  0  0  0  0  0  0  0  0  0  0
   14.5919    2.5120   -4.3725 C   0  0  0  0  0  0  0  0  0  0  0  0
   10.3087    8.2999    3.9224 H   0  0  0  0  0  0  0  0  0  0  0  0
   10.3160    7.9008    2.3312 H   0  0  0  0  0  0  0  0  0  0  0  0
    9.0146    6.3523    3.6014 H   0  0  0  0  0  0  0  0  0  0  0  0
   11.5118    5.4877    2.5027 H   0  0  0  0  0  0  0  0  0  0  0  0
   10.4833    3.7423    3.8105 H   0  0  0  0  0  0  0  0  0  0  0  0
   10.6090    3.4016    2.0935 H   0  0  0  0  0  0  0  0  0  0  0  0
    8.2554    4.3039    3.5709 H   0  0  0  0  0  0  0  0  0  0  0  0
    8.5990    5.3448    1.3847 H   0  0  0  0  0  0  0  0  0  0  0  0
    8.0345    2.6621    0.6143 H   0  0  0  0  0  0  0  0  0  0  0  0
    6.9176    4.2242   -0.7828 H   0  0  0  0  0  0  0  0  0  0  0  0
    8.2108    6.1472   -0.6389 H   0  0  0  0  0  0  0  0  0  0  0  0
   10.2495    4.8500   -0.2296 H   0  0  0  0  0  0  0  0  0  0  0  0
   10.1766    4.8720   -3.1774 H   0  0  0  0  0  0  0  0  0  0  0  0
   10.1427    3.4466   -2.1222 H   0  0  0  0  0  0  0  0  0  0  0  0
   12.3965    4.1110   -1.1989 H   0  0  0  0  0  0  0  0  0  0  0  0
   12.4385    5.4586   -2.3409 H   0  0  0  0  0  0  0  0  0  0  0  0
   12.1982    3.8291   -4.2451 H   0  0  0  0  0  0  0  0  0  0  0  0
   12.1768    2.4952   -3.0898 H   0  0  0  0  0  0  0  0  0  0  0  0
   14.4746    3.1206   -2.3165 H   0  0  0  0  0  0  0  0  0  0  0  0
   14.4992    4.4577   -3.4690 H   0  0  0  0  0  0  0  0  0  0  0  0
   14.2332    1.4928   -4.1979 H   0  0  0  0  0  0  0  0  0  0  0  0
   15.6865    2.4898   -4.3862 H   0  0  0  0  0  0  0  0  0  0  0  0
   14.2453    2.8328   -5.3603 H   0  0  0  0  0  0  0  0  0  0  0  0
  1  2  1  0  0  0  0
  1 16  1  0  0  0  0
  1 17  1  0  0  0  0
  2  3  1  0  0  0  0
  2 18  1  0  0  0  0
  3  4  1  0  0  0  0
  3 19  1  0  0  0  0
  4  5  1  0  0  0  0
  4 20  1  0  0  0  0
  4 21  1  0  0  0  0
  5  6  1  0  0  0  0
  5 22  1  0  0  0  0
  6  7  1  0  0  0  0
  6 23  1  0  0  0  0
  7  8  1  0  0  0  0
  7 24  1  0  0  0  0
  8  9  1  0  0  0  0
  8 25  1  0  0  0  0
  9 10  1  0  0  0  0
  9 26  1  0  0  0  0
 10 11  1  0  0  0  0
 10 27  1  0  0  0  0
 11 12  1  0  0  0  0
 11 28  1  0  0  0  0
 11 29  1  0  0  0  0
 12 13  1  0  0  0  0
 12 30  1  0  0  0  0
 12 31  1  0  0  0  0
 13 14  1  0  0  0  0
 13 32  1  0  0  0  0
 13 33  1  0  0  0  0
 14 15  1  0  0  0  0
 14 34  1  0  0  0  0
 14 35  1  0  0  0  0
 15 36  1  0  0  0  0
 15 37  1  0  0  0  0
 15 38  1  0  0  0  0
M  END
$$$$
