
 OpenBabel04232216573D

105104  0  0  0  0  0  0  0  0999 V2000
    3.5515   15.1149   -4.5452 C   0  0  0  0  0  0  0  0  0  0  0  0
    5.3384   15.3828   -4.5619 S   0  0  0  0  0  0  0  0  0  0  0  0
    5.9153   13.6519   -4.6835 C   0  0  0  0  0  0  0  0  0  0  0  0
    7.4464   13.6756   -4.7090 C   0  0  0  0  0  0  0  0  0  0  0  0
    8.0339   12.2633   -4.8102 C   0  0  0  0  0  0  0  0  0  0  0  0
    9.5725   12.3388   -4.8330 C   0  0  0  0  0  0  0  0  0  0  0  0
   10.1634   10.9244   -4.9359 C   0  0  0  0  0  0  0  0  0  0  0  0
   11.6905   10.9811   -4.9615 C   0  0  0  0  0  0  0  0  0  0  0  0
   12.2949    9.5891   -5.0641 C   0  0  0  0  0  0  0  0  0  0  0  0
   13.8123    9.6266   -5.0877 C   0  0  0  0  0  0  0  0  0  0  0  0
   14.4257    8.2493   -5.1900 C   0  0  0  0  0  0  0  0  0  0  0  0
   15.9323    8.2593   -5.2334 C   0  0  0  0  0  0  0  0  0  0  0  0
   16.6614    6.5886   -5.3653 S   0  0  0  0  0  0  0  0  0  0  0  0
   15.9685    5.8179   -7.1435 S   0  0  0  0  0  0  0  0  0  0  0  0
   16.6511    7.0529   -8.6419 S   0  0  0  0  0  0  0  0  0  0  0  0
   18.7137    6.9787   -8.6640 S   0  0  0  0  0  0  0  0  0  0  0  0
   19.3615    8.2626  -10.1774 S   0  0  0  0  0  0  0  0  0  0  0  0
   21.4570    8.2530  -10.1661 S   0  0  0  0  0  0  0  0  0  0  0  0
   22.1343    9.5129  -11.7060 S   0  0  0  0  0  0  0  0  0  0  0  0
   24.2391    9.5034  -11.6942 S   0  0  0  0  0  0  0  0  0  0  0  0
   24.9259   10.7646  -13.2348 S   0  0  0  0  0  0  0  0  0  0  0  0
   27.0333   10.7550  -13.2231 S   0  0  0  0  0  0  0  0  0  0  0  0
   27.7228   12.0169  -14.7646 S   0  0  0  0  0  0  0  0  0  0  0  0
   29.8314   12.0081  -14.7538 S   0  0  0  0  0  0  0  0  0  0  0  0
   30.5216   13.2704  -16.2958 S   0  0  0  0  0  0  0  0  0  0  0  0
   32.6307   13.2619  -16.2854 S   0  0  0  0  0  0  0  0  0  0  0  0
   33.3212   14.5245  -17.8276 S   0  0  0  0  0  0  0  0  0  0  0  0
   35.4305   14.5160  -17.8173 S   0  0  0  0  0  0  0  0  0  0  0  0
   36.1211   15.7786  -19.3596 S   0  0  0  0  0  0  0  0  0  0  0  0
   38.2305   15.7702  -19.3493 S   0  0  0  0  0  0  0  0  0  0  0  0
   38.9211   17.0328  -20.8916 S   0  0  0  0  0  0  0  0  0  0  0  0
   41.0305   17.0244  -20.8813 S   0  0  0  0  0  0  0  0  0  0  0  0
   41.7211   18.2869  -22.4236 S   0  0  0  0  0  0  0  0  0  0  0  0
   43.8305   18.2785  -22.4134 S   0  0  0  0  0  0  0  0  0  0  0  0
   44.5211   19.5411  -23.9556 S   0  0  0  0  0  0  0  0  0  0  0  0
   46.6304   19.5327  -23.9454 S   0  0  0  0  0  0  0  0  0  0  0  0
   47.3211   20.7953  -25.4876 S   0  0  0  0  0  0  0  0  0  0  0  0
   49.4304   20.7869  -25.4774 S   0  0  0  0  0  0  0  0  0  0  0  0
   50.1211   22.0494  -27.0197 S   0  0  0  0  0  0  0  0  0  0  0  0
   52.2304   22.0410  -27.0094 S   0  0  0  0  0  0  0  0  0  0  0  0
   52.9211   23.3036  -28.5517 S   0  0  0  0  0  0  0  0  0  0  0  0
   55.0304   23.2952  -28.5414 S   0  0  0  0  0  0  0  0  0  0  0  0
   55.7210   24.5578  -30.0837 S   0  0  0  0  0  0  0  0  0  0  0  0
   57.8304   24.5494  -30.0734 S   0  0  0  0  0  0  0  0  0  0  0  0
   58.5210   25.8119  -31.6157 S   0  0  0  0  0  0  0  0  0  0  0  0
   60.6304   25.8035  -31.6055 S   0  0  0  0  0  0  0  0  0  0  0  0
   61.3210   27.0661  -33.1477 S   0  0  0  0  0  0  0  0  0  0  0  0
   63.4304   27.0577  -33.1375 S   0  0  0  0  0  0  0  0  0  0  0  0
   64.1210   28.3203  -34.6797 S   0  0  0  0  0  0  0  0  0  0  0  0
   66.2304   28.3119  -34.6695 S   0  0  0  0  0  0  0  0  0  0  0  0
   66.9210   29.5744  -36.2118 S   0  0  0  0  0  0  0  0  0  0  0  0
   69.0304   29.5660  -36.2015 S   0  0  0  0  0  0  0  0  0  0  0  0
   69.7210   30.8286  -37.7438 S   0  0  0  0  0  0  0  0  0  0  0  0
   71.8304   30.8202  -37.7335 S   0  0  0  0  0  0  0  0  0  0  0  0
   72.5210   32.0828  -39.2758 S   0  0  0  0  0  0  0  0  0  0  0  0
   74.6304   32.0744  -39.2655 S   0  0  0  0  0  0  0  0  0  0  0  0
   75.3210   33.3369  -40.8078 S   0  0  0  0  0  0  0  0  0  0  0  0
   77.4304   33.3286  -40.7976 S   0  0  0  0  0  0  0  0  0  0  0  0
   78.1210   34.5911  -42.3398 S   0  0  0  0  0  0  0  0  0  0  0  0
   80.2304   34.5827  -42.3296 S   0  0  0  0  0  0  0  0  0  0  0  0
   80.9210   35.8453  -43.8718 S   0  0  0  0  0  0  0  0  0  0  0  0
   83.0303   35.8369  -43.8616 S   0  0  0  0  0  0  0  0  0  0  0  0
   83.7210   37.0994  -45.4038 S   0  0  0  0  0  0  0  0  0  0  0  0
   85.8303   37.0911  -45.3936 S   0  0  0  0  0  0  0  0  0  0  0  0
   86.5209   38.3536  -46.9359 S   0  0  0  0  0  0  0  0  0  0  0  0
   88.6303   38.3452  -46.9256 S   0  0  0  0  0  0  0  0  0  0  0  0
   89.3208   39.6077  -48.4678 S   0  0  0  0  0  0  0  0  0  0  0  0
   91.4301   39.5993  -48.4575 S   0  0  0  0  0  0  0  0  0  0  0  0
   92.1204   40.8617  -49.9996 S   0  0  0  0  0  0  0  0  0  0  0  0
   94.2292   40.8531  -49.9890 S   0  0  0  0  0  0  0  0  0  0  0  0
   94.9187   42.1152  -51.5308 S   0  0  0  0  0  0  0  0  0  0  0  0
   97.0263   42.1059  -51.5195 S   0  0  0  0  0  0  0  0  0  0  0  0
   97.7136   43.3672  -53.0602 S   0  0  0  0  0  0  0  0  0  0  0  0
   99.8179   43.3561  -53.0465 S   0  0  0  0  0  0  0  0  0  0  0  0
  100.5005   44.6152  -54.5844 S   0  0  0  0  0  0  0  0  0  0  0  0
  102.5974   44.5989  -54.5655 S   0  0  0  0  0  0  0  0  0  0  0  0
  103.2663   45.8542  -56.0981 S   0  0  0  0  0  0  0  0  0  0  0  0
  105.3461   45.8531  -56.0438 S   0  0  0  0  0  0  0  0  0  0  0  0
  106.0077   47.0254  -57.6202 S   0  0  0  0  0  0  0  0  0  0  0  0
  108.0733   47.0429  -57.5239 S   0  0  0  0  0  0  0  0  0  0  0  0
  108.6600   45.1193  -57.9374 S   0  0  0  0  0  0  0  0  0  0  0  0
    3.0608   16.0898   -4.4735 H   0  0  0  0  0  0  0  0  0  0  0  0
    3.2541   14.5169   -3.6803 H   0  0  0  0  0  0  0  0  0  0  0  0
    3.2202   14.6312   -5.4673 H   0  0  0  0  0  0  0  0  0  0  0  0
    5.5265   13.1988   -5.5975 H   0  0  0  0  0  0  0  0  0  0  0  0
    5.5579   13.0844   -3.8222 H   0  0  0  0  0  0  0  0  0  0  0  0
    7.8282   14.1525   -3.8002 H   0  0  0  0  0  0  0  0  0  0  0  0
    7.7971   14.2660   -5.5619 H   0  0  0  0  0  0  0  0  0  0  0  0
    7.6735   11.7795   -5.7184 H   0  0  0  0  0  0  0  0  0  0  0  0
    7.7047   11.6662   -3.9598 H   0  0  0  0  0  0  0  0  0  0  0  0
    9.9292   12.8191   -3.9241 H   0  0  0  0  0  0  0  0  0  0  0  0
    9.8980   12.9347   -5.6826 H   0  0  0  0  0  0  0  0  0  0  0  0
    9.7979   10.4379   -5.8452 H   0  0  0  0  0  0  0  0  0  0  0  0
    9.8311   10.3229   -4.0852 H   0  0  0  0  0  0  0  0  0  0  0  0
   12.0553   11.4769   -4.0500 H   0  0  0  0  0  0  0  0  0  0  0  0
   12.0220   11.5921   -5.8134 H   0  0  0  0  0  0  0  0  0  0  0  0
   11.9220    9.0937   -5.9772 H   0  0  0  0  0  0  0  0  0  0  0  0
   11.9524    8.9775   -4.2113 H   0  0  0  0  0  0  0  0  0  0  0  0
   14.1837   10.1257   -4.1740 H   0  0  0  0  0  0  0  0  0  0  0  0
   14.1528   10.2441   -5.9402 H   0  0  0  0  0  0  0  0  0  0  0  0
   14.0122    7.7620   -6.1049 H   0  0  0  0  0  0  0  0  0  0  0  0
   14.0663    7.6267   -4.3405 H   0  0  0  0  0  0  0  0  0  0  0  0
   16.3275    8.7107   -4.3039 H   0  0  0  0  0  0  0  0  0  0  0  0
   16.3054    8.8511   -6.0664 H   0  0  0  0  0  0  0  0  0  0  0  0
  109.9973   45.2353  -57.8677 H   0  0  0  0  0  0  0  0  0  0  0  0
  1  2  1  0  0  0  0
  1 82  1  0  0  0  0
  1 83  1  0  0  0  0
  1 84  1  0  0  0  0
  2  3  1  0  0  0  0
  3  4  1  0  0  0  0
  3 85  1  0  0  0  0
  3 86  1  0  0  0  0
  4  5  1  0  0  0  0
  4 87  1  0  0  0  0
  4 88  1  0  0  0  0
  5  6  1  0  0  0  0
  5 89  1  0  0  0  0
  5 90  1  0  0  0  0
  6  7  1  0  0  0  0
  6 91  1  0  0  0  0
  6 92  1  0  0  0  0
  7  8  1  0  0  0  0
  7 93  1  0  0  0  0
  7 94  1  0  0  0  0
  8  9  1  0  0  0  0
  8 95  1  0  0  0  0
  8 96  1  0  0  0  0
  9 10  1  0  0  0  0
  9 97  1  0  0  0  0
  9 98  1  0  0  0  0
 10 11  1  0  0  0  0
 10 99  1  0  0  0  0
 10100  1  0  0  0  0
 11 12  1  0  0  0  0
 11101  1  0  0  0  0
 11102  1  0  0  0  0
 12 13  1  0  0  0  0
 12103  1  0  0  0  0
 12104  1  0  0  0  0
 13 14  1  0  0  0  0
 14 15  1  0  0  0  0
 15 16  1  0  0  0  0
 16 17  1  0  0  0  0
 17 18  1  0  0  0  0
 18 19  1  0  0  0  0
 19 20  1  0  0  0  0
 20 21  1  0  0  0  0
 21 22  1  0  0  0  0
 22 23  1  0  0  0  0
 23 24  1  0  0  0  0
 24 25  1  0  0  0  0
 25 26  1  0  0  0  0
 26 27  1  0  0  0  0
 27 28  1  0  0  0  0
 28 29  1  0  0  0  0
 29 30  1  0  0  0  0
 30 31  1  0  0  0  0
 31 32  1  0  0  0  0
 32 33  1  0  0  0  0
 33 34  1  0  0  0  0
 34 35  1  0  0  0  0
 35 36  1  0  0  0  0
 36 37  1  0  0  0  0
 37 38  1  0  0  0  0
 38 39  1  0  0  0  0
 39 40  1  0  0  0  0
 40 41  1  0  0  0  0
 41 42  1  0  0  0  0
 42 43  1  0  0  0  0
 43 44  1  0  0  0  0
 44 45  1  0  0  0  0
 45 46  1  0  0  0  0
 46 47  1  0  0  0  0
 47 48  1  0  0  0  0
 48 49  1  0  0  0  0
 49 50  1  0  0  0  0
 50 51  1  0  0  0  0
 51 52  1  0  0  0  0
 52 53  1  0  0  0  0
 53 54  1  0  0  0  0
 54 55  1  0  0  0  0
 55 56  1  0  0  0  0
 56 57  1  0  0  0  0
 57 58  1  0  0  0  0
 58 59  1  0  0  0  0
 59 60  1  0  0  0  0
 60 61  1  0  0  0  0
 61 62  1  0  0  0  0
 62 63  1  0  0  0  0
 63 64  1  0  0  0  0
 64 65  1  0  0  0  0
 65 66  1  0  0  0  0
 66 67  1  0  0  0  0
 67 68  1  0  0  0  0
 68 69  1  0  0  0  0
 69 70  1  0  0  0  0
 70 71  1  0  0  0  0
 71 72  1  0  0  0  0
 72 73  1  0  0  0  0
 73 74  1  0  0  0  0
 74 75  1  0  0  0  0
 75 76  1  0  0  0  0
 76 77  1  0  0  0  0
 77 78  1  0  0  0  0
 78 79  1  0  0  0  0
 79 80  1  0  0  0  0
 80 81  1  0  0  0  0
 81105  1  0  0  0  0
M  END
$$$$
