
 OpenBabel04232216473D

 42 43  0  0  0  0  0  0  0  0999 V2000
   16.6589    1.2463    1.3288 C   0  0  0  0  0  0  0  0  0  0  0  0
   15.3716    0.6803    0.7647 C   0  0  0  0  0  0  0  0  0  0  0  0
   15.6150   -0.4182   -0.3391 C   0  0  0  0  0  0  0  0  0  0  0  0
   14.4960   -0.9513   -0.8125 C   0  0  0  0  0  0  0  0  0  0  0  0
   13.8713   -1.8694   -1.7695 C   0  0  0  0  0  0  0  0  0  0  0  0
   14.7136   -2.7484   -2.6365 C   0  0  0  0  0  0  0  0  0  0  0  0
   12.5016   -1.8796   -1.8137 C   0  0  0  0  0  0  0  0  0  0  0  0
   11.7995   -0.9369   -0.9155 C   0  0  0  0  0  0  0  0  0  0  0  0
   11.6646   -2.6861   -2.6084 N   0  0  0  0  0  0  0  0  0  0  0  0
   10.4060   -2.6577   -2.5674 C   0  0  0  0  0  0  0  0  0  0  0  0
    9.2254   -3.1539   -3.0471 C   0  0  0  0  0  0  0  0  0  0  0  0
    8.7723   -2.2772   -2.1821 C   0  0  0  0  0  0  0  0  0  0  0  0
    8.8248   -1.3071   -1.1481 C   0  0  0  0  0  0  0  0  0  0  0  0
    8.2435   -0.4077   -0.3313 C   0  0  0  0  0  0  0  0  0  0  0  0
    9.2296    0.3565    0.4641 C   0  0  0  0  0  0  0  0  0  0  0  0
    9.4574    1.2996    1.3954 C   0  0  0  0  0  0  0  0  0  0  0  0
    8.3153    1.9934    2.0674 C   0  0  0  0  0  0  0  0  0  0  0  0
   10.8421    1.4947    1.6021 N   0  0  0  0  0  0  0  0  0  0  0  0
   11.4121    2.3307    2.4033 C   0  0  0  0  0  0  0  0  0  0  0  0
   12.9334    2.5227    2.5924 C   0  0  0  0  0  0  0  0  0  0  0  0
   14.0779    2.0610    2.1202 N   0  0  0  0  0  0  0  0  0  0  0  0
   14.1549    1.0700    1.1428 N   0  0  0  0  0  0  0  0  0  0  0  0
   17.5242    0.7661    0.8551 H   0  0  0  0  0  0  0  0  0  0  0  0
   16.7178    1.0532    2.4019 H   0  0  0  0  0  0  0  0  0  0  0  0
   16.7203    2.3173    1.1276 H   0  0  0  0  0  0  0  0  0  0  0  0
   16.6142   -0.6606   -0.6660 H   0  0  0  0  0  0  0  0  0  0  0  0
   13.7564   -0.5346   -0.1868 H   0  0  0  0  0  0  0  0  0  0  0  0
   15.7843   -2.5869   -2.4758 H   0  0  0  0  0  0  0  0  0  0  0  0
   14.5074   -2.5572   -3.6953 H   0  0  0  0  0  0  0  0  0  0  0  0
   14.5056   -3.8040   -2.4290 H   0  0  0  0  0  0  0  0  0  0  0  0
   12.2029   -0.1477   -0.2901 H   0  0  0  0  0  0  0  0  0  0  0  0
   11.3641   -1.5940   -0.1479 H   0  0  0  0  0  0  0  0  0  0  0  0
   11.1922   -0.3134   -1.5785 H   0  0  0  0  0  0  0  0  0  0  0  0
    8.8659   -3.8378   -3.7816 H   0  0  0  0  0  0  0  0  0  0  0  0
    9.8256   -1.3905   -0.8926 H   0  0  0  0  0  0  0  0  0  0  0  0
    7.1845   -0.2019   -0.2744 H   0  0  0  0  0  0  0  0  0  0  0  0
   10.2161    0.0668    0.1799 H   0  0  0  0  0  0  0  0  0  0  0  0
    7.3561    1.6094    1.6857 H   0  0  0  0  0  0  0  0  0  0  0  0
    8.3138    3.0690    1.8719 H   0  0  0  0  0  0  0  0  0  0  0  0
    8.3094    1.8115    3.1452 H   0  0  0  0  0  0  0  0  0  0  0  0
   10.8202    3.0040    3.0506 H   0  0  0  0  0  0  0  0  0  0  0  0
   13.1030    3.2943    3.3625 H   0  0  0  0  0  0  0  0  0  0  0  0
  1  2  1  0  0  0  0
  1 23  1  0  0  0  0
  1 24  1  0  0  0  0
  1 25  1  0  0  0  0
  2  3  1  0  0  0  0
  2 22  2  3  0  0  0
  3  4  2  3  0  0  0
  3 26  1  0  0  0  0
  4  5  1  0  0  0  0
  4 27  1  0  0  0  0
  5  6  1  0  0  0  0
  5  7  2  3  0  0  0
  6 28  1  0  0  0  0
  6 29  1  0  0  0  0
  6 30  1  0  0  0  0
  7  8  1  0  0  0  0
  7  9  1  0  0  0  0
  8 31  1  0  0  0  0
  8 32  1  0  0  0  0
  8 33  1  0  0  0  0
  9 10  2  3  0  0  0
 10 11  1  0  0  0  0
 10 12  1  0  0  0  0
 11 12  2  0  0  0  0
 11 34  1  0  0  0  0
 12 13  1  0  0  0  0
 13 14  2  3  0  0  0
 13 35  1  0  0  0  0
 14 15  1  0  0  0  0
 14 36  1  0  0  0  0
 15 16  2  3  0  0  0
 15 37  1  0  0  0  0
 16 17  1  0  0  0  0
 16 18  1  0  0  0  0
 17 38  1  0  0  0  0
 17 39  1  0  0  0  0
 17 40  1  0  0  0  0
 18 19  2  3  0  0  0
 19 20  1  0  0  0  0
 19 41  1  0  0  0  0
 20 21  2  3  0  0  0
 20 42  1  0  0  0  0
 21 22  1  0  0  0  0
M  END
$$$$
