
 OpenBabel04232216513D

 56 56  0  0  1  0  0  0  0  0999 V2000
    0.9882   -0.2749    0.1146 C   0  0  0  0  0  0  0  0  0  0  0  0
    2.4992   -0.1700   -0.0221 C   0  0  0  0  0  0  0  0  0  0  0  0
    3.0307    0.7548   -1.1388 C   0  0  3  0  0  0  0  0  0  0  0  0
    2.4623    2.1859   -1.0974 C   0  0  0  0  0  0  0  0  0  0  0  0
    2.7897    3.0988   -2.2941 C   0  0  0  0  0  0  0  0  0  0  0  0
    2.3848    2.5650   -3.6728 C   0  0  0  0  0  0  0  0  0  0  0  0
    0.8726    2.3524   -3.8559 C   0  0  3  0  0  0  0  0  0  0  0  0
    0.1424    3.6735   -3.6949 C   0  0  0  0  0  0  0  0  0  0  0  0
   -0.4688    4.2404   -4.5967 O   0  0  0  0  0  0  0  0  0  0  0  0
    0.5513    1.7590   -5.2325 C   0  0  0  0  0  0  0  0  0  0  0  0
    1.0359    0.3420   -5.3937 C   0  0  0  0  0  0  0  0  0  0  0  0
    1.2538   -0.4199   -4.4574 O   0  0  0  0  0  0  0  0  0  0  0  0
    4.5840    0.7342   -1.1774 C   0  0  0  0  0  0  0  0  0  0  0  0
    5.5379   -0.1766   -0.8590 C   0  0  0  0  0  0  0  0  0  0  0  0
    5.5413   -1.5888   -0.3005 C   0  0  0  0  0  0  0  0  0  0  0  0
    6.7932   -1.8902    0.5035 C   0  0  0  0  0  0  0  0  0  0  0  0
    6.7316   -3.3070    1.0650 C   0  0  0  0  0  0  0  0  0  0  0  0
    7.9651   -3.6033    1.9177 C   0  0  0  0  0  0  0  0  0  0  0  0
    7.9214   -5.0235    2.4660 C   0  0  0  0  0  0  0  0  0  0  0  0
    9.1529   -5.3120    3.3055 C   0  0  0  0  0  0  0  0  0  0  0  0
    6.6843    0.7215   -1.2830 C   0  0  0  0  0  0  0  0  0  0  0  0
    5.6193    1.7521   -1.6383 C   0  0  0  0  0  0  0  0  0  0  0  0
    0.7405   -1.1483    0.7312 H   0  0  0  0  0  0  0  0  0  0  0  0
    0.5055   -0.4015   -0.8594 H   0  0  0  0  0  0  0  0  0  0  0  0
    0.5706    0.6021    0.6145 H   0  0  0  0  0  0  0  0  0  0  0  0
    2.8343   -1.1885   -0.2331 H   0  0  0  0  0  0  0  0  0  0  0  0
    2.9290    0.1198    0.9455 H   0  0  0  0  0  0  0  0  0  0  0  0
    2.7029    0.2866   -2.0756 H   0  0  0  0  0  0  0  0  0  0  0  0
    2.8188    2.6842   -0.1863 H   0  0  0  0  0  0  0  0  0  0  0  0
    1.3715    2.1432   -1.0050 H   0  0  0  0  0  0  0  0  0  0  0  0
    3.8555    3.3293   -2.3184 H   0  0  0  0  0  0  0  0  0  0  0  0
    2.3222    4.0742   -2.1203 H   0  0  0  0  0  0  0  0  0  0  0  0
    2.9279    1.6352   -3.8687 H   0  0  0  0  0  0  0  0  0  0  0  0
    2.7423    3.2795   -4.4272 H   0  0  0  0  0  0  0  0  0  0  0  0
    0.4862    1.6838   -3.0784 H   0  0  0  0  0  0  0  0  0  0  0  0
    0.1929    4.1293   -2.6912 H   0  0  0  0  0  0  0  0  0  0  0  0
    1.0035    2.3637   -6.0270 H   0  0  0  0  0  0  0  0  0  0  0  0
   -0.5305    1.7417   -5.4099 H   0  0  0  0  0  0  0  0  0  0  0  0
    1.1379   -0.0041   -6.4365 H   0  0  0  0  0  0  0  0  0  0  0  0
    5.4993   -2.2715   -1.1588 H   0  0  0  0  0  0  0  0  0  0  0  0
    4.6436   -1.8011    0.2802 H   0  0  0  0  0  0  0  0  0  0  0  0
    6.8796   -1.1704    1.3278 H   0  0  0  0  0  0  0  0  0  0  0  0
    7.6866   -1.7710   -0.1208 H   0  0  0  0  0  0  0  0  0  0  0  0
    6.6641   -4.0270    0.2400 H   0  0  0  0  0  0  0  0  0  0  0  0
    5.8251   -3.4270    1.6722 H   0  0  0  0  0  0  0  0  0  0  0  0
    8.0178   -2.8866    2.7422 H   0  0  0  0  0  0  0  0  0  0  0  0
    8.8670   -3.4620    1.3132 H   0  0  0  0  0  0  0  0  0  0  0  0
    7.8687   -5.7423    1.6388 H   0  0  0  0  0  0  0  0  0  0  0  0
    7.0215   -5.1631    3.0772 H   0  0  0  0  0  0  0  0  0  0  0  0
   10.0652   -5.2014    2.7114 H   0  0  0  0  0  0  0  0  0  0  0  0
    9.1176   -6.3345    3.6914 H   0  0  0  0  0  0  0  0  0  0  0  0
    9.2135   -4.6248    4.1554 H   0  0  0  0  0  0  0  0  0  0  0  0
    7.2754    0.3712   -2.1360 H   0  0  0  0  0  0  0  0  0  0  0  0
    7.3721    1.0382   -0.4907 H   0  0  0  0  0  0  0  0  0  0  0  0
    5.6080    2.0107   -2.7034 H   0  0  0  0  0  0  0  0  0  0  0  0
    5.6818    2.6751   -1.0509 H   0  0  0  0  0  0  0  0  0  0  0  0
  1  2  1  0  0  0  0
  1 23  1  0  0  0  0
  1 24  1  0  0  0  0
  1 25  1  0  0  0  0
  2  3  1  0  0  0  0
  2 26  1  0  0  0  0
  2 27  1  0  0  0  0
  3  4  1  0  0  0  0
  3 13  1  0  0  0  0
  3 28  1  0  0  0  0
  4  5  1  0  0  0  0
  4 29  1  0  0  0  0
  4 30  1  0  0  0  0
  5  6  1  0  0  0  0
  5 31  1  0  0  0  0
  5 32  1  0  0  0  0
  6  7  1  0  0  0  0
  6 33  1  0  0  0  0
  6 34  1  0  0  0  0
  7  8  1  0  0  0  0
  7 10  1  0  0  0  0
  7 35  1  0  0  0  0
  8  9  2  0  0  0  0
  8 36  1  0  0  0  0
 10 11  1  0  0  0  0
 10 37  1  0  0  0  0
 10 38  1  0  0  0  0
 11 12  2  0  0  0  0
 11 39  1  0  0  0  0
 13 14  2  0  0  0  0
 13 22  1  0  0  0  0
 14 15  1  0  0  0  0
 14 21  1  0  0  0  0
 15 16  1  0  0  0  0
 15 40  1  0  0  0  0
 15 41  1  0  0  0  0
 16 17  1  0  0  0  0
 16 42  1  0  0  0  0
 16 43  1  0  0  0  0
 17 18  1  0  0  0  0
 17 44  1  0  0  0  0
 17 45  1  0  0  0  0
 18 19  1  0  0  0  0
 18 46  1  0  0  0  0
 18 47  1  0  0  0  0
 19 20  1  0  0  0  0
 19 48  1  0  0  0  0
 19 49  1  0  0  0  0
 20 50  1  0  0  0  0
 20 51  1  0  0  0  0
 20 52  1  0  0  0  0
 21 22  1  0  0  0  0
 21 53  1  0  0  0  0
 21 54  1  0  0  0  0
 22 55  1  0  0  0  0
 22 56  1  0  0  0  0
M  END
$$$$
