
 OpenBabel04232217013D

236235  0  0  0  0  0  0  0  0999 V2000
    0.9867    0.0305   -0.0514 O   0  0  0  0  0  0  0  0  0  0  0  0
    2.4061    0.0050   -0.0219 C   0  0  0  0  0  0  0  0  0  0  0  0
    2.9323    1.3582   -0.4692 C   0  0  0  0  0  0  0  0  0  0  0  0
    4.4559    1.3855   -0.4570 C   0  0  0  0  0  0  0  0  0  0  0  0
    4.9785    2.7441   -0.9070 C   0  0  0  0  0  0  0  0  0  0  0  0
    6.5035    2.7708   -0.8970 C   0  0  0  0  0  0  0  0  0  0  0  0
    7.0028    4.1374   -1.3451 C   0  0  0  0  0  0  0  0  0  0  0  0
    8.4615    4.1513   -1.3272 N   0  0  0  0  0  0  0  0  0  0  0  0
    8.9507    5.4534   -1.7599 C   0  0  0  0  0  0  0  0  0  0  0  0
   10.4714    5.4466   -1.7386 C   0  0  0  0  0  0  0  0  0  0  0  0
   10.9959    6.8032   -2.1846 C   0  0  0  0  0  0  0  0  0  0  0  0
   12.5147    6.8168   -2.1696 C   0  0  0  0  0  0  0  0  0  0  0  0
   13.0265    8.1758   -2.6169 C   0  0  0  0  0  0  0  0  0  0  0  0
   14.5446    8.1924   -2.6021 C   0  0  0  0  0  0  0  0  0  0  0  0
   15.0554    9.5505   -3.0493 C   0  0  0  0  0  0  0  0  0  0  0  0
   16.5733    9.5632   -3.0346 C   0  0  0  0  0  0  0  0  0  0  0  0
   17.0834   10.9195   -3.4827 C   0  0  0  0  0  0  0  0  0  0  0  0
   18.6016   10.9308   -3.4696 C   0  0  0  0  0  0  0  0  0  0  0  0
   19.1148   12.2877   -3.9168 C   0  0  0  0  0  0  0  0  0  0  0  0
   20.6313   12.2979   -3.9060 C   0  0  0  0  0  0  0  0  0  0  0  0
   21.1425   13.6540   -4.3531 C   0  0  0  0  0  0  0  0  0  0  0  0
   22.6608   13.6641   -4.3446 C   0  0  0  0  0  0  0  0  0  0  0  0
   23.1730   15.0211   -4.7917 C   0  0  0  0  0  0  0  0  0  0  0  0
   24.6910   15.0304   -4.7843 C   0  0  0  0  0  0  0  0  0  0  0  0
   25.2052   16.3874   -5.2311 C   0  0  0  0  0  0  0  0  0  0  0  0
   26.7240   16.3955   -5.2254 C   0  0  0  0  0  0  0  0  0  0  0  0
   27.2422   17.7520   -5.6719 C   0  0  0  0  0  0  0  0  0  0  0  0
   28.7625   17.7601   -5.6664 C   0  0  0  0  0  0  0  0  0  0  0  0
   29.2814   19.1171   -6.1132 C   0  0  0  0  0  0  0  0  0  0  0  0
   30.8040   19.1348   -6.1126 C   0  0  0  0  0  0  0  0  0  0  0  0
   31.3053   20.5002   -6.5608 C   0  0  0  0  0  0  0  0  0  0  0  0
   32.7637   20.5087   -6.5504 N   0  0  0  0  0  0  0  0  0  0  0  0
   33.2584   21.8108   -6.9836 C   0  0  0  0  0  0  0  0  0  0  0  0
   34.7847   21.8108   -6.9823 C   0  0  0  0  0  0  0  0  0  0  0  0
   35.2976   23.1765   -7.4301 C   0  0  0  0  0  0  0  0  0  0  0  0
   36.7569   23.1963   -7.4185 N   0  0  0  0  0  0  0  0  0  0  0  0
   37.2453   24.5021   -7.8541 C   0  0  0  0  0  0  0  0  0  0  0  0
   38.7712   24.4948   -7.8568 C   0  0  0  0  0  0  0  0  0  0  0  0
   39.2347   25.8154   -8.2818 N   0  0  0  0  0  0  0  0  0  0  0  0
   40.6690   25.8070   -8.2674 N   0  0  0  0  0  0  0  0  0  0  0  0
   41.1408   27.1094   -8.7225 C   0  0  0  0  0  0  0  0  0  0  0  0
   42.6582   27.0823   -8.7249 C   0  0  0  0  0  0  0  0  0  0  0  0
   43.1090   28.4019   -9.1444 N   0  0  0  0  0  0  0  0  0  0  0  0
   44.5302   28.3935   -9.1099 N   0  0  0  0  0  0  0  0  0  0  0  0
   45.0003   29.6983   -9.5653 C   0  0  0  0  0  0  0  0  0  0  0  0
   46.5260   29.7070   -9.5679 C   0  0  0  0  0  0  0  0  0  0  0  0
   47.0510   31.0648  -10.0208 C   0  0  0  0  0  0  0  0  0  0  0  0
   48.5735   31.0808  -10.0197 C   0  0  0  0  0  0  0  0  0  0  0  0
   49.0915   32.4384  -10.4724 C   0  0  0  0  0  0  0  0  0  0  0  0
   50.6123   32.4517  -10.4722 C   0  0  0  0  0  0  0  0  0  0  0  0
   51.1279   33.8081  -10.9253 C   0  0  0  0  0  0  0  0  0  0  0  0
   52.6474   33.8184  -10.9226 C   0  0  0  0  0  0  0  0  0  0  0  0
   53.1614   35.1735  -11.3766 C   0  0  0  0  0  0  0  0  0  0  0  0
   54.6798   35.1829  -11.3715 C   0  0  0  0  0  0  0  0  0  0  0  0
   55.1918   36.5382  -11.8244 C   0  0  0  0  0  0  0  0  0  0  0  0
   56.7093   36.5472  -11.8173 C   0  0  0  0  0  0  0  0  0  0  0  0
   57.2207   37.9017  -12.2714 C   0  0  0  0  0  0  0  0  0  0  0  0
   58.7378   37.9093  -12.2657 C   0  0  0  0  0  0  0  0  0  0  0  0
   59.2486   39.2636  -12.7200 C   0  0  0  0  0  0  0  0  0  0  0  0
   60.7655   39.2703  -12.7160 C   0  0  0  0  0  0  0  0  0  0  0  0
   61.2759   40.6245  -13.1703 C   0  0  0  0  0  0  0  0  0  0  0  0
   62.7927   40.6310  -13.1664 C   0  0  0  0  0  0  0  0  0  0  0  0
   63.3030   41.9852  -13.6207 C   0  0  0  0  0  0  0  0  0  0  0  0
   64.8198   41.9917  -13.6168 C   0  0  0  0  0  0  0  0  0  0  0  0
   65.3302   43.3458  -14.0710 C   0  0  0  0  0  0  0  0  0  0  0  0
   66.8470   43.3523  -14.0670 C   0  0  0  0  0  0  0  0  0  0  0  0
   67.3575   44.7066  -14.5213 C   0  0  0  0  0  0  0  0  0  0  0  0
   68.8744   44.7133  -14.5178 C   0  0  0  0  0  0  0  0  0  0  0  0
   69.3853   46.0677  -14.9720 C   0  0  0  0  0  0  0  0  0  0  0  0
   70.9025   46.0742  -14.9699 C   0  0  0  0  0  0  0  0  0  0  0  0
   71.4140   47.4287  -15.4243 C   0  0  0  0  0  0  0  0  0  0  0  0
   72.9318   47.4362  -15.4228 C   0  0  0  0  0  0  0  0  0  0  0  0
   73.4446   48.7911  -15.8772 C   0  0  0  0  0  0  0  0  0  0  0  0
   74.9634   48.7997  -15.8762 C   0  0  0  0  0  0  0  0  0  0  0  0
   75.4794   50.1546  -16.3307 C   0  0  0  0  0  0  0  0  0  0  0  0
   76.9999   50.1636  -16.3316 C   0  0  0  0  0  0  0  0  0  0  0  0
   77.5195   51.5189  -16.7865 C   0  0  0  0  0  0  0  0  0  0  0  0
   79.0423   51.5328  -16.7896 C   0  0  0  0  0  0  0  0  0  0  0  0
   79.5621   52.8901  -17.2470 C   0  0  0  0  0  0  0  0  0  0  0  0
   81.0863   52.9156  -17.2561 C   0  0  0  0  0  0  0  0  0  0  0  0
   81.6022   54.2685  -17.7127 C   0  0  0  0  0  0  0  0  0  0  0  0
    0.6867   -0.8468    0.2386 H   0  0  0  0  0  0  0  0  0  0  0  0
    2.7562   -0.7883   -0.6902 H   0  0  0  0  0  0  0  0  0  0  0  0
    2.7314   -0.2202    0.9988 H   0  0  0  0  0  0  0  0  0  0  0  0
    2.5320    2.1426    0.1852 H   0  0  0  0  0  0  0  0  0  0  0  0
    2.5553    1.5846   -1.4746 H   0  0  0  0  0  0  0  0  0  0  0  0
    4.8458    0.6037   -1.1201 H   0  0  0  0  0  0  0  0  0  0  0  0
    4.8230    1.1664    0.5531 H   0  0  0  0  0  0  0  0  0  0  0  0
    4.5920    3.5282   -0.2443 H   0  0  0  0  0  0  0  0  0  0  0  0
    4.6134    2.9661   -1.9174 H   0  0  0  0  0  0  0  0  0  0  0  0
    6.8923    1.9905   -1.5635 H   0  0  0  0  0  0  0  0  0  0  0  0
    6.8727    2.5496    0.1125 H   0  0  0  0  0  0  0  0  0  0  0  0
    6.6139    4.9081   -0.6687 H   0  0  0  0  0  0  0  0  0  0  0  0
    6.6330    4.3531   -2.3549 H   0  0  0  0  0  0  0  0  0  0  0  0
    8.8221    3.4245   -1.9452 H   0  0  0  0  0  0  0  0  0  0  0  0
    8.5808    6.2380   -1.0890 H   0  0  0  0  0  0  0  0  0  0  0  0
    8.5980    5.6783   -2.7739 H   0  0  0  0  0  0  0  0  0  0  0  0
   10.8580    4.6640   -2.4038 H   0  0  0  0  0  0  0  0  0  0  0  0
   10.8349    5.2227   -0.7275 H   0  0  0  0  0  0  0  0  0  0  0  0
   10.6115    7.5876   -1.5209 H   0  0  0  0  0  0  0  0  0  0  0  0
   10.6332    7.0283   -3.1952 H   0  0  0  0  0  0  0  0  0  0  0  0
   12.9020    6.0355   -2.8351 H   0  0  0  0  0  0  0  0  0  0  0  0
   12.8801    6.5945   -1.1594 H   0  0  0  0  0  0  0  0  0  0  0  0
   12.6391    8.9585   -1.9532 H   0  0  0  0  0  0  0  0  0  0  0  0
   12.6617    8.3987   -3.6272 H   0  0  0  0  0  0  0  0  0  0  0  0
   14.9329    7.4110   -3.2668 H   0  0  0  0  0  0  0  0  0  0  0  0
   14.9104    7.9710   -1.5919 H   0  0  0  0  0  0  0  0  0  0  0  0
   14.6693   10.3331   -2.3845 H   0  0  0  0  0  0  0  0  0  0  0  0
   14.6902    9.7736   -4.0594 H   0  0  0  0  0  0  0  0  0  0  0  0
   16.9599    8.7804   -3.6988 H   0  0  0  0  0  0  0  0  0  0  0  0
   16.9391    9.3414   -2.0244 H   0  0  0  0  0  0  0  0  0  0  0  0
   16.7004   11.7028   -2.8179 H   0  0  0  0  0  0  0  0  0  0  0  0
   16.7191   11.1424   -4.4925 H   0  0  0  0  0  0  0  0  0  0  0  0
   18.9868   10.1476   -4.1349 H   0  0  0  0  0  0  0  0  0  0  0  0
   18.9685   10.7069   -2.4600 H   0  0  0  0  0  0  0  0  0  0  0  0
   18.7307   13.0691   -3.2500 H   0  0  0  0  0  0  0  0  0  0  0  0
   18.7468   12.5110   -4.9258 H   0  0  0  0  0  0  0  0  0  0  0  0
   21.0159   11.5149   -4.5716 H   0  0  0  0  0  0  0  0  0  0  0  0
   21.0001   12.0747   -2.8969 H   0  0  0  0  0  0  0  0  0  0  0  0
   20.7603   14.4366   -3.6871 H   0  0  0  0  0  0  0  0  0  0  0  0
   20.7744   13.8779   -5.3624 H   0  0  0  0  0  0  0  0  0  0  0  0
   23.0432   12.8818   -5.0119 H   0  0  0  0  0  0  0  0  0  0  0  0
   23.0296   13.4391   -3.3363 H   0  0  0  0  0  0  0  0  0  0  0  0
   22.7911   15.8028   -4.1236 H   0  0  0  0  0  0  0  0  0  0  0  0
   22.8027   15.2462   -5.7995 H   0  0  0  0  0  0  0  0  0  0  0  0
   25.0717   14.2480   -5.4523 H   0  0  0  0  0  0  0  0  0  0  0  0
   25.0602   14.8042   -3.7764 H   0  0  0  0  0  0  0  0  0  0  0  0
   24.8245   17.1688   -4.5620 H   0  0  0  0  0  0  0  0  0  0  0  0
   24.8339   16.6134   -6.2383 H   0  0  0  0  0  0  0  0  0  0  0  0
   27.1026   15.6128   -5.8942 H   0  0  0  0  0  0  0  0  0  0  0  0
   27.0934   16.1680   -4.2179 H   0  0  0  0  0  0  0  0  0  0  0  0
   26.8618   18.5338   -5.0029 H   0  0  0  0  0  0  0  0  0  0  0  0
   26.8708   17.9786   -6.6790 H   0  0  0  0  0  0  0  0  0  0  0  0
   29.1405   16.9773   -6.3354 H   0  0  0  0  0  0  0  0  0  0  0  0
   29.1315   17.5327   -4.6589 H   0  0  0  0  0  0  0  0  0  0  0  0
   28.8996   19.8978   -5.4436 H   0  0  0  0  0  0  0  0  0  0  0  0
   28.9072   19.3432   -7.1194 H   0  0  0  0  0  0  0  0  0  0  0  0
   31.1823   18.3530   -6.7832 H   0  0  0  0  0  0  0  0  0  0  0  0
   31.1761   18.9078   -5.1055 H   0  0  0  0  0  0  0  0  0  0  0  0
   30.9205   21.2693   -5.8803 H   0  0  0  0  0  0  0  0  0  0  0  0
   30.9287   20.7178   -7.5677 H   0  0  0  0  0  0  0  0  0  0  0  0
   33.1198   19.7829   -7.1729 H   0  0  0  0  0  0  0  0  0  0  0  0
   32.8937   22.5918   -6.3055 H   0  0  0  0  0  0  0  0  0  0  0  0
   32.8922   22.0391   -7.9920 H   0  0  0  0  0  0  0  0  0  0  0  0
   35.1602   21.0288   -7.6550 H   0  0  0  0  0  0  0  0  0  0  0  0
   35.1567   21.5811   -5.9752 H   0  0  0  0  0  0  0  0  0  0  0  0
   34.9098   23.9460   -6.7514 H   0  0  0  0  0  0  0  0  0  0  0  0
   34.9214   23.3939   -8.4374 H   0  0  0  0  0  0  0  0  0  0  0  0
   37.1249   22.4760   -8.0389 H   0  0  0  0  0  0  0  0  0  0  0  0
   36.8781   25.2810   -7.1744 H   0  0  0  0  0  0  0  0  0  0  0  0
   36.8750   24.7276   -8.8625 H   0  0  0  0  0  0  0  0  0  0  0  0
   39.1366   23.7206   -8.5440 H   0  0  0  0  0  0  0  0  0  0  0  0
   39.1445   24.2619   -6.8506 H   0  0  0  0  0  0  0  0  0  0  0  0
   38.8803   26.5081   -7.6197 H   0  0  0  0  0  0  0  0  0  0  0  0
   41.0073   25.0887   -8.9085 H   0  0  0  0  0  0  0  0  0  0  0  0
   40.7796   27.8952   -8.0456 H   0  0  0  0  0  0  0  0  0  0  0  0
   40.7636   27.3284   -9.7303 H   0  0  0  0  0  0  0  0  0  0  0  0
   43.0208   26.3100   -9.4156 H   0  0  0  0  0  0  0  0  0  0  0  0
   43.0330   26.8471   -7.7193 H   0  0  0  0  0  0  0  0  0  0  0  0
   42.7456   29.0822   -8.4787 H   0  0  0  0  0  0  0  0  0  0  0  0
   44.8688   27.6695   -9.7432 H   0  0  0  0  0  0  0  0  0  0  0  0
   44.6369   30.4890   -8.8965 H   0  0  0  0  0  0  0  0  0  0  0  0
   44.6318   29.9141  -10.5765 H   0  0  0  0  0  0  0  0  0  0  0  0
   46.9067   28.9251  -10.2372 H   0  0  0  0  0  0  0  0  0  0  0  0
   46.9041   29.4849   -8.5618 H   0  0  0  0  0  0  0  0  0  0  0  0
   46.6738   31.8503   -9.3544 H   0  0  0  0  0  0  0  0  0  0  0  0
   46.6801   31.2894  -11.0284 H   0  0  0  0  0  0  0  0  0  0  0  0
   48.9548   30.2981  -10.6868 H   0  0  0  0  0  0  0  0  0  0  0  0
   48.9477   30.8593   -9.0128 H   0  0  0  0  0  0  0  0  0  0  0  0
   48.7142   33.2230   -9.8052 H   0  0  0  0  0  0  0  0  0  0  0  0
   48.7193   32.6628  -11.4795 H   0  0  0  0  0  0  0  0  0  0  0  0
   50.9924   31.6686  -11.1397 H   0  0  0  0  0  0  0  0  0  0  0  0
   50.9872   32.2297   -9.4655 H   0  0  0  0  0  0  0  0  0  0  0  0
   50.7499   34.5930  -10.2588 H   0  0  0  0  0  0  0  0  0  0  0  0
   50.7564   34.0312  -11.9329 H   0  0  0  0  0  0  0  0  0  0  0  0
   53.0276   33.0341  -11.5887 H   0  0  0  0  0  0  0  0  0  0  0  0
   53.0207   33.5973   -9.9151 H   0  0  0  0  0  0  0  0  0  0  0  0
   52.7819   35.9592  -10.7119 H   0  0  0  0  0  0  0  0  0  0  0  0
   52.7910   35.3950  -12.3850 H   0  0  0  0  0  0  0  0  0  0  0  0
   55.0607   34.3989  -12.0374 H   0  0  0  0  0  0  0  0  0  0  0  0
   55.0516   34.9617  -10.3635 H   0  0  0  0  0  0  0  0  0  0  0  0
   54.8111   37.3234  -11.1595 H   0  0  0  0  0  0  0  0  0  0  0  0
   54.8220   36.7598  -12.8331 H   0  0  0  0  0  0  0  0  0  0  0  0
   57.0909   35.7621  -12.4816 H   0  0  0  0  0  0  0  0  0  0  0  0
   57.0800   36.3272  -10.8086 H   0  0  0  0  0  0  0  0  0  0  0  0
   56.8406   38.6871  -11.6066 H   0  0  0  0  0  0  0  0  0  0  0  0
   56.8499   38.1226  -13.2799 H   0  0  0  0  0  0  0  0  0  0  0  0
   59.1183   37.1241  -12.9306 H   0  0  0  0  0  0  0  0  0  0  0  0
   59.1093   37.6889  -11.2573 H   0  0  0  0  0  0  0  0  0  0  0  0
   58.8694   40.0489  -12.0545 H   0  0  0  0  0  0  0  0  0  0  0  0
   58.8765   39.4848  -13.7280 H   0  0  0  0  0  0  0  0  0  0  0  0
   61.1448   38.4852  -13.3817 H   0  0  0  0  0  0  0  0  0  0  0  0
   61.1379   39.0492  -11.7081 H   0  0  0  0  0  0  0  0  0  0  0  0
   60.8968   41.4098  -12.5047 H   0  0  0  0  0  0  0  0  0  0  0  0
   60.9036   40.8458  -14.1782 H   0  0  0  0  0  0  0  0  0  0  0  0
   63.1718   39.8459  -13.8321 H   0  0  0  0  0  0  0  0  0  0  0  0
   63.1651   40.4098  -12.1586 H   0  0  0  0  0  0  0  0  0  0  0  0
   62.9239   42.7704  -12.9550 H   0  0  0  0  0  0  0  0  0  0  0  0
   62.9306   42.2064  -14.6286 H   0  0  0  0  0  0  0  0  0  0  0  0
   65.1989   41.2064  -14.2825 H   0  0  0  0  0  0  0  0  0  0  0  0
   65.1922   41.7703  -12.6089 H   0  0  0  0  0  0  0  0  0  0  0  0
   64.9510   44.1310  -13.4052 H   0  0  0  0  0  0  0  0  0  0  0  0
   64.9577   43.5671  -15.0788 H   0  0  0  0  0  0  0  0  0  0  0  0
   67.2260   42.5671  -14.7327 H   0  0  0  0  0  0  0  0  0  0  0  0
   67.2192   43.1310  -13.0591 H   0  0  0  0  0  0  0  0  0  0  0  0
   66.9785   45.4915  -13.8556 H   0  0  0  0  0  0  0  0  0  0  0  0
   66.9848   44.9277  -15.5290 H   0  0  0  0  0  0  0  0  0  0  0  0
   69.2532   43.9281  -15.1835 H   0  0  0  0  0  0  0  0  0  0  0  0
   69.2468   44.4919  -13.5099 H   0  0  0  0  0  0  0  0  0  0  0  0
   69.0068   46.8525  -14.3055 H   0  0  0  0  0  0  0  0  0  0  0  0
   69.0119   46.2896  -15.9794 H   0  0  0  0  0  0  0  0  0  0  0  0
   71.2802   45.2889  -15.6364 H   0  0  0  0  0  0  0  0  0  0  0  0
   71.2755   45.8520  -13.9625 H   0  0  0  0  0  0  0  0  0  0  0  0
   71.0354   48.2134  -14.7576 H   0  0  0  0  0  0  0  0  0  0  0  0
   71.0399   47.6502  -16.4314 H   0  0  0  0  0  0  0  0  0  0  0  0
   73.3091   46.6507  -16.0891 H   0  0  0  0  0  0  0  0  0  0  0  0
   73.3047   47.2138  -14.4154 H   0  0  0  0  0  0  0  0  0  0  0  0
   73.0657   49.5755  -15.2105 H   0  0  0  0  0  0  0  0  0  0  0  0
   73.0701   49.0123  -16.8843 H   0  0  0  0  0  0  0  0  0  0  0  0
   75.3400   48.0139  -16.5425 H   0  0  0  0  0  0  0  0  0  0  0  0
   75.3358   48.5766  -14.8688 H   0  0  0  0  0  0  0  0  0  0  0  0
   75.1013   50.9388  -15.6632 H   0  0  0  0  0  0  0  0  0  0  0  0
   75.1038   50.3764  -17.3372 H   0  0  0  0  0  0  0  0  0  0  0  0
   77.3746   49.3772  -16.9982 H   0  0  0  0  0  0  0  0  0  0  0  0
   77.3724   49.9397  -15.3244 H   0  0  0  0  0  0  0  0  0  0  0  0
   77.1408   52.3028  -16.1191 H   0  0  0  0  0  0  0  0  0  0  0  0
   77.1425   51.7403  -17.7925 H   0  0  0  0  0  0  0  0  0  0  0  0
   79.4172   50.7460  -17.4555 H   0  0  0  0  0  0  0  0  0  0  0  0
   79.4155   51.3103  -15.7824 H   0  0  0  0  0  0  0  0  0  0  0  0
   79.1815   53.6730  -16.5795 H   0  0  0  0  0  0  0  0  0  0  0  0
   79.1814   53.1095  -18.2520 H   0  0  0  0  0  0  0  0  0  0  0  0
   81.4681   52.1352  -17.9246 H   0  0  0  0  0  0  0  0  0  0  0  0
   81.4686   52.6995  -16.2517 H   0  0  0  0  0  0  0  0  0  0  0  0
   81.2554   54.4963  -18.7257 H   0  0  0  0  0  0  0  0  0  0  0  0
   82.6958   54.2756  -17.7152 H   0  0  0  0  0  0  0  0  0  0  0  0
   81.2556   55.0631  -17.0442 H   0  0  0  0  0  0  0  0  0  0  0  0
  1  2  1  0  0  0  0
  1 82  1  0  0  0  0
  2  3  1  0  0  0  0
  2 83  1  0  0  0  0
  2 84  1  0  0  0  0
  3  4  1  0  0  0  0
  3 85  1  0  0  0  0
  3 86  1  0  0  0  0
  4  5  1  0  0  0  0
  4 87  1  0  0  0  0
  4 88  1  0  0  0  0
  5  6  1  0  0  0  0
  5 89  1  0  0  0  0
  5 90  1  0  0  0  0
  6  7  1  0  0  0  0
  6 91  1  0  0  0  0
  6 92  1  0  0  0  0
  7  8  1  0  0  0  0
  7 93  1  0  0  0  0
  7 94  1  0  0  0  0
  8  9  1  0  0  0  0
  8 95  1  0  0  0  0
  9 10  1  0  0  0  0
  9 96  1  0  0  0  0
  9 97  1  0  0  0  0
 10 11  1  0  0  0  0
 10 98  1  0  0  0  0
 10 99  1  0  0  0  0
 11 12  1  0  0  0  0
 11100  1  0  0  0  0
 11101  1  0  0  0  0
 12 13  1  0  0  0  0
 12102  1  0  0  0  0
 12103  1  0  0  0  0
 13 14  1  0  0  0  0
 13104  1  0  0  0  0
 13105  1  0  0  0  0
 14 15  1  0  0  0  0
 14106  1  0  0  0  0
 14107  1  0  0  0  0
 15 16  1  0  0  0  0
 15108  1  0  0  0  0
 15109  1  0  0  0  0
 16 17  1  0  0  0  0
 16110  1  0  0  0  0
 16111  1  0  0  0  0
 17 18  1  0  0  0  0
 17112  1  0  0  0  0
 17113  1  0  0  0  0
 18 19  1  0  0  0  0
 18114  1  0  0  0  0
 18115  1  0  0  0  0
 19 20  1  0  0  0  0
 19116  1  0  0  0  0
 19117  1  0  0  0  0
 20 21  1  0  0  0  0
 20118  1  0  0  0  0
 20119  1  0  0  0  0
 21 22  1  0  0  0  0
 21120  1  0  0  0  0
 21121  1  0  0  0  0
 22 23  1  0  0  0  0
 22122  1  0  0  0  0
 22123  1  0  0  0  0
 23 24  1  0  0  0  0
 23124  1  0  0  0  0
 23125  1  0  0  0  0
 24 25  1  0  0  0  0
 24126  1  0  0  0  0
 24127  1  0  0  0  0
 25 26  1  0  0  0  0
 25128  1  0  0  0  0
 25129  1  0  0  0  0
 26 27  1  0  0  0  0
 26130  1  0  0  0  0
 26131  1  0  0  0  0
 27 28  1  0  0  0  0
 27132  1  0  0  0  0
 27133  1  0  0  0  0
 28 29  1  0  0  0  0
 28134  1  0  0  0  0
 28135  1  0  0  0  0
 29 30  1  0  0  0  0
 29136  1  0  0  0  0
 29137  1  0  0  0  0
 30 31  1  0  0  0  0
 30138  1  0  0  0  0
 30139  1  0  0  0  0
 31 32  1  0  0  0  0
 31140  1  0  0  0  0
 31141  1  0  0  0  0
 32 33  1  0  0  0  0
 32142  1  0  0  0  0
 33 34  1  0  0  0  0
 33143  1  0  0  0  0
 33144  1  0  0  0  0
 34 35  1  0  0  0  0
 34145  1  0  0  0  0
 34146  1  0  0  0  0
 35 36  1  0  0  0  0
 35147  1  0  0  0  0
 35148  1  0  0  0  0
 36 37  1  0  0  0  0
 36149  1  0  0  0  0
 37 38  1  0  0  0  0
 37150  1  0  0  0  0
 37151  1  0  0  0  0
 38 39  1  0  0  0  0
 38152  1  0  0  0  0
 38153  1  0  0  0  0
 39 40  1  0  0  0  0
 39154  1  0  0  0  0
 40 41  1  0  0  0  0
 40155  1  0  0  0  0
 41 42  1  0  0  0  0
 41156  1  0  0  0  0
 41157  1  0  0  0  0
 42 43  1  0  0  0  0
 42158  1  0  0  0  0
 42159  1  0  0  0  0
 43 44  1  0  0  0  0
 43160  1  0  0  0  0
 44 45  1  0  0  0  0
 44161  1  0  0  0  0
 45 46  1  0  0  0  0
 45162  1  0  0  0  0
 45163  1  0  0  0  0
 46 47  1  0  0  0  0
 46164  1  0  0  0  0
 46165  1  0  0  0  0
 47 48  1  0  0  0  0
 47166  1  0  0  0  0
 47167  1  0  0  0  0
 48 49  1  0  0  0  0
 48168  1  0  0  0  0
 48169  1  0  0  0  0
 49 50  1  0  0  0  0
 49170  1  0  0  0  0
 49171  1  0  0  0  0
 50 51  1  0  0  0  0
 50172  1  0  0  0  0
 50173  1  0  0  0  0
 51 52  1  0  0  0  0
 51174  1  0  0  0  0
 51175  1  0  0  0  0
 52 53  1  0  0  0  0
 52176  1  0  0  0  0
 52177  1  0  0  0  0
 53 54  1  0  0  0  0
 53178  1  0  0  0  0
 53179  1  0  0  0  0
 54 55  1  0  0  0  0
 54180  1  0  0  0  0
 54181  1  0  0  0  0
 55 56  1  0  0  0  0
 55182  1  0  0  0  0
 55183  1  0  0  0  0
 56 57  1  0  0  0  0
 56184  1  0  0  0  0
 56185  1  0  0  0  0
 57 58  1  0  0  0  0
 57186  1  0  0  0  0
 57187  1  0  0  0  0
 58 59  1  0  0  0  0
 58188  1  0  0  0  0
 58189  1  0  0  0  0
 59 60  1  0  0  0  0
 59190  1  0  0  0  0
 59191  1  0  0  0  0
 60 61  1  0  0  0  0
 60192  1  0  0  0  0
 60193  1  0  0  0  0
 61 62  1  0  0  0  0
 61194  1  0  0  0  0
 61195  1  0  0  0  0
 62 63  1  0  0  0  0
 62196  1  0  0  0  0
 62197  1  0  0  0  0
 63 64  1  0  0  0  0
 63198  1  0  0  0  0
 63199  1  0  0  0  0
 64 65  1  0  0  0  0
 64200  1  0  0  0  0
 64201  1  0  0  0  0
 65 66  1  0  0  0  0
 65202  1  0  0  0  0
 65203  1  0  0  0  0
 66 67  1  0  0  0  0
 66204  1  0  0  0  0
 66205  1  0  0  0  0
 67 68  1  0  0  0  0
 67206  1  0  0  0  0
 67207  1  0  0  0  0
 68 69  1  0  0  0  0
 68208  1  0  0  0  0
 68209  1  0  0  0  0
 69 70  1  0  0  0  0
 69210  1  0  0  0  0
 69211  1  0  0  0  0
 70 71  1  0  0  0  0
 70212  1  0  0  0  0
 70213  1  0  0  0  0
 71 72  1  0  0  0  0
 71214  1  0  0  0  0
 71215  1  0  0  0  0
 72 73  1  0  0  0  0
 72216  1  0  0  0  0
 72217  1  0  0  0  0
 73 74  1  0  0  0  0
 73218  1  0  0  0  0
 73219  1  0  0  0  0
 74 75  1  0  0  0  0
 74220  1  0  0  0  0
 74221  1  0  0  0  0
 75 76  1  0  0  0  0
 75222  1  0  0  0  0
 75223  1  0  0  0  0
 76 77  1  0  0  0  0
 76224  1  0  0  0  0
 76225  1  0  0  0  0
 77 78  1  0  0  0  0
 77226  1  0  0  0  0
 77227  1  0  0  0  0
 78 79  1  0  0  0  0
 78228  1  0  0  0  0
 78229  1  0  0  0  0
 79 80  1  0  0  0  0
 79230  1  0  0  0  0
 79231  1  0  0  0  0
 80 81  1  0  0  0  0
 80232  1  0  0  0  0
 80233  1  0  0  0  0
 81234  1  0  0  0  0
 81235  1  0  0  0  0
 81236  1  0  0  0  0
M  END
$$$$
