
 OpenBabel04232216473D

 56 57  0  0  1  0  0  0  0  0999 V2000
    7.9295   -0.7386   -0.1483 C   0  0  0  0  0  0  0  0  0  0  0  0
    8.2669   -2.3338   -0.3700 C   0  0  0  0  0  0  0  0  0  0  0  0
    6.9666   -2.8229   -0.2711 C   0  0  0  0  0  0  0  0  0  0  0  0
    5.9474   -3.7377   -0.8768 C   0  0  0  0  0  0  0  0  0  0  0  0
    5.2497   -3.3235   -1.9645 C   0  0  0  0  0  0  0  0  0  0  0  0
    3.8976   -3.7837   -2.5000 C   0  0  0  0  0  0  0  0  0  0  0  0
    5.9424   -2.5561   -3.0477 C   0  0  0  0  0  0  0  0  0  0  0  0
    6.4205   -3.6976   -3.9253 C   0  0  0  0  0  0  0  0  0  0  0  0
    7.8924   -3.7827   -3.7987 C   0  0  0  0  0  0  0  0  0  0  0  0
    8.4663   -4.5956   -4.9349 C   0  0  0  0  0  0  0  0  0  0  0  0
    9.6139   -3.7885   -5.4882 C   0  0  0  0  0  0  0  0  0  0  0  0
   10.8445   -4.6761   -5.5509 C   0  0  0  0  0  0  0  0  0  0  0  0
   11.4113   -4.2692   -4.2156 C   0  0  0  0  0  0  0  0  0  0  0  0
   12.4757   -4.8781   -3.4673 C   0  0  3  0  0  0  0  0  0  0  0  0
   12.4953   -6.4280   -3.6647 C   0  0  0  0  0  0  0  0  0  0  0  0
   12.5666   -6.9781   -2.2539 C   0  0  0  0  0  0  0  0  0  0  0  0
   12.1968   -4.6407   -1.9022 C   0  0  0  0  0  0  0  0  0  0  0  0
   12.9495   -5.7230   -1.4452 C   0  0  0  0  0  0  0  0  0  0  0  0
   14.6222   -5.7224   -1.6565 C   0  0  0  0  0  0  0  0  0  0  0  0
   15.4537   -6.6063   -2.6891 C   0  0  0  0  0  0  0  0  0  0  0  0
   10.7546   -3.7964   -1.2762 C   0  0  0  0  0  0  0  0  0  0  0  0
    9.7304   -2.7454   -1.1452 C   0  0  0  0  0  0  0  0  0  0  0  0
    6.8671   -0.4834   -0.4332 H   0  0  0  0  0  0  0  0  0  0  0  0
    8.4696   -0.0222   -0.7782 H   0  0  0  0  0  0  0  0  0  0  0  0
    7.9572   -0.4534    0.9060 H   0  0  0  0  0  0  0  0  0  0  0  0
    6.3119   -2.2317    0.3415 H   0  0  0  0  0  0  0  0  0  0  0  0
    5.5590   -4.4206   -0.1977 H   0  0  0  0  0  0  0  0  0  0  0  0
    3.0625   -3.2757   -2.0151 H   0  0  0  0  0  0  0  0  0  0  0  0
    3.7936   -4.8690   -2.4668 H   0  0  0  0  0  0  0  0  0  0  0  0
    3.7958   -3.5142   -3.5645 H   0  0  0  0  0  0  0  0  0  0  0  0
    6.7564   -1.9178   -2.6747 H   0  0  0  0  0  0  0  0  0  0  0  0
    5.2976   -1.8738   -3.6039 H   0  0  0  0  0  0  0  0  0  0  0  0
    6.1011   -3.5351   -4.9573 H   0  0  0  0  0  0  0  0  0  0  0  0
    6.0420   -4.7041   -3.6368 H   0  0  0  0  0  0  0  0  0  0  0  0
    8.1861   -4.2401   -2.8315 H   0  0  0  0  0  0  0  0  0  0  0  0
    8.2803   -2.7504   -3.7600 H   0  0  0  0  0  0  0  0  0  0  0  0
    7.7297   -4.7407   -5.7385 H   0  0  0  0  0  0  0  0  0  0  0  0
    8.7014   -5.5854   -4.5556 H   0  0  0  0  0  0  0  0  0  0  0  0
    9.8150   -2.9638   -4.7792 H   0  0  0  0  0  0  0  0  0  0  0  0
    9.3842   -3.2178   -6.3838 H   0  0  0  0  0  0  0  0  0  0  0  0
   11.4701   -4.4394   -6.4107 H   0  0  0  0  0  0  0  0  0  0  0  0
   10.5741   -5.7370   -5.6164 H   0  0  0  0  0  0  0  0  0  0  0  0
   10.5676   -4.4452   -3.5495 H   0  0  0  0  0  0  0  0  0  0  0  0
   11.6725   -3.2035   -4.2429 H   0  0  0  0  0  0  0  0  0  0  0  0
   13.4447   -4.4667   -3.7397 H   0  0  0  0  0  0  0  0  0  0  0  0
   13.3330   -6.7282   -4.3067 H   0  0  0  0  0  0  0  0  0  0  0  0
   11.6263   -6.8419   -4.1772 H   0  0  0  0  0  0  0  0  0  0  0  0
   13.2859   -7.8061   -2.1851 H   0  0  0  0  0  0  0  0  0  0  0  0
   11.6020   -7.3819   -1.9478 H   0  0  0  0  0  0  0  0  0  0  0  0
   15.0424   -5.9889   -0.6810 H   0  0  0  0  0  0  0  0  0  0  0  0
   14.9231   -4.6911   -1.8738 H   0  0  0  0  0  0  0  0  0  0  0  0
   15.4675   -7.6750   -2.4356 H   0  0  0  0  0  0  0  0  0  0  0  0
   16.5095   -6.2944   -2.6967 H   0  0  0  0  0  0  0  0  0  0  0  0
   15.1603   -6.5187   -3.7400 H   0  0  0  0  0  0  0  0  0  0  0  0
   11.4109   -3.0163   -1.7531 H   0  0  0  0  0  0  0  0  0  0  0  0
    9.9903   -1.7725   -1.6251 H   0  0  0  0  0  0  0  0  0  0  0  0
  1  2  1  0  0  0  0
  1 23  1  0  0  0  0
  1 24  1  0  0  0  0
  1 25  1  0  0  0  0
  2  3  2  3  0  0  0
  2 22  1  0  0  0  0
  3  4  1  0  0  0  0
  3 26  1  0  0  0  0
  4  5  2  3  0  0  0
  4 27  1  0  0  0  0
  5  6  1  0  0  0  0
  5  7  1  0  0  0  0
  6 28  1  0  0  0  0
  6 29  1  0  0  0  0
  6 30  1  0  0  0  0
  7  8  1  0  0  0  0
  7 31  1  0  0  0  0
  7 32  1  0  0  0  0
  8  9  1  0  0  0  0
  8 33  1  0  0  0  0
  8 34  1  0  0  0  0
  9 10  1  0  0  0  0
  9 35  1  0  0  0  0
  9 36  1  0  0  0  0
 10 11  1  0  0  0  0
 10 37  1  0  0  0  0
 10 38  1  0  0  0  0
 11 12  1  0  0  0  0
 11 39  1  0  0  0  0
 11 40  1  0  0  0  0
 12 13  1  0  0  0  0
 12 41  1  0  0  0  0
 12 42  1  0  0  0  0
 13 14  1  0  0  0  0
 13 43  1  0  0  0  0
 13 44  1  0  0  0  0
 14 15  1  0  0  0  0
 14 17  1  0  0  0  0
 14 45  1  0  0  0  0
 15 16  1  0  0  0  0
 15 46  1  0  0  0  0
 15 47  1  0  0  0  0
 16 18  1  0  0  0  0
 16 48  1  0  0  0  0
 16 49  1  0  0  0  0
 17 18  2  0  0  0  0
 17 21  1  0  0  0  0
 18 19  1  0  0  0  0
 19 20  1  0  0  0  0
 19 50  1  0  0  0  0
 19 51  1  0  0  0  0
 20 52  1  0  0  0  0
 20 53  1  0  0  0  0
 20 54  1  0  0  0  0
 21 22  2  3  0  0  0
 21 55  1  0  0  0  0
 22 56  1  0  0  0  0
M  END
$$$$
