
 OpenBabel04232216433D

 52 53  0  0  1  0  0  0  0  0999 V2000
    6.0058    1.0581    3.9864 C   0  0  0  0  0  0  0  0  0  0  0  0
    7.5830    0.9409    4.2973 C   0  0  3  0  0  0  0  0  0  0  0  0
    8.5122   -0.3958    3.8183 C   0  0  0  0  0  0  0  0  0  0  0  0
    8.9183   -1.5431    4.5844 C   0  0  0  0  0  0  0  0  0  0  0  0
   10.2790   -2.4948    4.6092 C   0  0  0  0  0  0  0  0  0  0  0  0
   10.4676   -3.8107    5.0686 C   0  0  0  0  0  0  0  0  0  0  0  0
   11.5615   -4.8266    5.0025 N   0  0  0  0  0  0  0  0  0  0  0  0
    8.1216    2.2782    3.7747 C   0  0  0  0  0  3  0  0  0  0  0  0
    7.7408    2.9197    2.4798 C   0  0  0  0  0  0  0  0  0  0  0  0
    7.3866    4.1289    2.4911 O   0  0  0  0  0  0  0  0  0  0  0  0
    7.9269    2.2880    1.2086 C   0  0  0  0  0  0  0  0  0  0  0  0
    7.8105    0.9833    0.8251 C   0  0  0  0  0  0  0  0  0  0  0  0
    7.2796   -0.1507    1.5216 C   0  0  0  0  0  0  0  0  0  0  0  0
    6.3471   -0.8105    0.7195 N   0  0  0  0  0  0  0  0  0  0  0  0
    6.8744   -1.9064   -0.0422 C   0  0  0  0  0  0  0  0  0  0  0  0
    7.0936   -3.1004    0.8887 C   0  0  0  0  0  0  0  0  0  0  0  0
    8.5698   -3.1932    1.2086 C   0  0  0  0  0  0  0  0  0  0  0  0
    8.7481   -4.3828    2.0767 C   0  0  0  0  0  0  0  0  0  0  0  0
   10.2029   -4.7755    1.9460 C   0  0  0  0  0  0  0  0  0  0  0  0
   10.2548   -6.1368    2.5807 C   0  0  0  0  0  0  0  0  0  0  0  0
   11.6680   -6.3728    3.0225 C   0  0  0  0  0  0  0  0  0  0  0  0
   11.6157   -6.2750    4.5456 C   0  0  0  0  0  0  0  0  0  0  0  0
    7.5976   -0.7131    2.7075 C   0  0  0  0  0  0  0  0  0  0  0  0
    5.4528    0.1342    4.1754 H   0  0  0  0  0  0  0  0  0  0  0  0
    5.7669    1.3553    2.9512 H   0  0  0  0  0  0  0  0  0  0  0  0
    5.5418    1.8564    4.5838 H   0  0  0  0  0  0  0  0  0  0  0  0
    7.6481    0.9659    5.3869 H   0  0  0  0  0  0  0  0  0  0  0  0
    8.1560   -2.3377    4.6146 H   0  0  0  0  0  0  0  0  0  0  0  0
   11.1856   -1.9312    4.3881 H   0  0  0  0  0  0  0  0  0  0  0  0
   10.5917   -3.7169    6.1634 H   0  0  0  0  0  0  0  0  0  0  0  0
   12.4950   -4.4272    4.9823 H   0  0  0  0  0  0  0  0  0  0  0  0
    8.1108    3.0651    4.5380 H   0  0  0  0  0  0  0  0  0  0  0  0
    8.0804    2.9904    0.3708 H   0  0  0  0  0  0  0  0  0  0  0  0
    7.9030    0.8152   -0.2575 H   0  0  0  0  0  0  0  0  0  0  0  0
    5.5694   -1.1344    1.2817 H   0  0  0  0  0  0  0  0  0  0  0  0
    7.8551   -1.6107   -0.4837 H   0  0  0  0  0  0  0  0  0  0  0  0
    6.2343   -2.1882   -0.8669 H   0  0  0  0  0  0  0  0  0  0  0  0
    6.7563   -4.0199    0.4142 H   0  0  0  0  0  0  0  0  0  0  0  0
    6.5047   -3.0323    1.8184 H   0  0  0  0  0  0  0  0  0  0  0  0
    9.0159   -2.3280    1.6997 H   0  0  0  0  0  0  0  0  0  0  0  0
    9.1287   -3.2962    0.2707 H   0  0  0  0  0  0  0  0  0  0  0  0
    8.1044   -5.2069    1.7474 H   0  0  0  0  0  0  0  0  0  0  0  0
    8.4592   -4.1696    3.1120 H   0  0  0  0  0  0  0  0  0  0  0  0
   10.8341   -4.0343    2.4283 H   0  0  0  0  0  0  0  0  0  0  0  0
   10.5196   -4.8434    0.9125 H   0  0  0  0  0  0  0  0  0  0  0  0
    9.8881   -6.9015    1.8858 H   0  0  0  0  0  0  0  0  0  0  0  0
    9.5667   -6.1771    3.4357 H   0  0  0  0  0  0  0  0  0  0  0  0
   12.3773   -5.6312    2.6308 H   0  0  0  0  0  0  0  0  0  0  0  0
   11.9977   -7.3435    2.6271 H   0  0  0  0  0  0  0  0  0  0  0  0
   12.5335   -6.7710    4.9029 H   0  0  0  0  0  0  0  0  0  0  0  0
   10.8003   -6.9059    4.9405 H   0  0  0  0  0  0  0  0  0  0  0  0
    6.9393   -1.5290    3.0234 H   0  0  0  0  0  0  0  0  0  0  0  0
  1  2  1  0  0  0  0
  1 24  1  0  0  0  0
  1 25  1  0  0  0  0
  1 26  1  0  0  0  0
  2  3  1  0  0  0  0
  2  8  1  0  0  0  0
  2 27  1  0  0  0  0
  3  4  2  3  0  0  0
  3 23  1  0  0  0  0
  4  5  1  0  0  0  0
  4 28  1  0  0  0  0
  5  6  2  3  0  0  0
  5 29  1  0  0  0  0
  6  7  1  0  0  0  0
  6 30  1  0  0  0  0
  7 22  1  0  0  0  0
  7 31  1  0  0  0  0
  8  9  1  0  0  0  0
  8 32  1  0  0  0  0
  9 10  2  0  0  0  0
  9 11  1  0  0  0  0
 11 12  2  0  0  0  0
 11 33  1  0  0  0  0
 12 13  1  0  0  0  0
 12 34  1  0  0  0  0
 13 14  1  0  0  0  0
 13 23  2  0  0  0  0
 14 15  1  0  0  0  0
 14 35  1  0  0  0  0
 15 16  1  0  0  0  0
 15 36  1  0  0  0  0
 15 37  1  0  0  0  0
 16 17  1  0  0  0  0
 16 38  1  0  0  0  0
 16 39  1  0  0  0  0
 17 18  1  0  0  0  0
 17 40  1  0  0  0  0
 17 41  1  0  0  0  0
 18 19  1  0  0  0  0
 18 42  1  0  0  0  0
 18 43  1  0  0  0  0
 19 20  1  0  0  0  0
 19 44  1  0  0  0  0
 19 45  1  0  0  0  0
 20 21  1  0  0  0  0
 20 46  1  0  0  0  0
 20 47  1  0  0  0  0
 21 22  1  0  0  0  0
 21 48  1  0  0  0  0
 21 49  1  0  0  0  0
 22 50  1  0  0  0  0
 22 51  1  0  0  0  0
 23 52  1  0  0  0  0
M  END
$$$$
