
 OpenBabel04232216433D

 21 21  0  0  0  0  0  0  0  0999 V2000
   -1.5830    0.2177    0.4131 C   0  0  0  0  0  0  0  0  0  0  0  0
   -1.0435    1.2731   -0.4170 C   0  0  0  0  0  0  0  0  0  0  0  0
    0.2413    1.6608   -0.4167 C   0  0  0  0  0  0  0  0  0  0  0  0
    1.2746    1.0811    0.4135 C   0  0  0  0  0  0  0  0  0  0  0  0
    1.6007   -0.2185    0.4559 C   0  0  0  0  0  0  0  0  0  0  0  0
    0.9609   -1.2253   -0.4456 C   0  0  0  0  0  0  0  0  0  0  0  0
    1.8920   -1.8436   -1.4779 C   0  0  0  0  0  0  0  0  0  0  0  0
    1.8644   -1.0254   -2.7586 C   0  0  0  0  0  0  0  0  0  0  0  0
   -0.2751   -1.6185   -0.4642 N   0  0  0  0  0  0  0  0  0  0  0  0
   -1.1766   -1.0616    0.4029 C   0  0  0  0  0  0  0  0  0  0  0  0
   -2.3862    0.5104    1.0834 H   0  0  0  0  0  0  0  0  0  0  0  0
   -1.7610    1.7996   -1.0410 H   0  0  0  0  0  0  0  0  0  0  0  0
    0.5452    2.4974   -1.0414 H   0  0  0  0  0  0  0  0  0  0  0  0
    1.8297    1.7834    1.0297 H   0  0  0  0  0  0  0  0  0  0  0  0
    2.4023   -0.5840    1.0863 H   0  0  0  0  0  0  0  0  0  0  0  0
    1.5758   -2.8727   -1.6807 H   0  0  0  0  0  0  0  0  0  0  0  0
    2.9117   -1.8827   -1.0801 H   0  0  0  0  0  0  0  0  0  0  0  0
    0.8572   -0.9997   -3.1880 H   0  0  0  0  0  0  0  0  0  0  0  0
    2.5437   -1.4534   -3.5016 H   0  0  0  0  0  0  0  0  0  0  0  0
    2.1706    0.0099   -2.5747 H   0  0  0  0  0  0  0  0  0  0  0  0
   -1.6710   -1.7698    1.0637 H   0  0  0  0  0  0  0  0  0  0  0  0
  1  2  1  0  0  0  0
  1 10  2  0  0  0  0
  1 11  1  0  0  0  0
  2  3  2  0  0  0  0
  2 12  1  0  0  0  0
  3  4  1  0  0  0  0
  3 13  1  0  0  0  0
  4  5  2  0  0  0  0
  4 14  1  0  0  0  0
  5  6  1  0  0  0  0
  5 15  1  0  0  0  0
  6  7  1  0  0  0  0
  6  9  2  0  0  0  0
  7  8  1  0  0  0  0
  7 16  1  0  0  0  0
  7 17  1  0  0  0  0
  8 18  1  0  0  0  0
  8 19  1  0  0  0  0
  8 20  1  0  0  0  0
  9 10  1  0  0  0  0
 10 21  1  0  0  0  0
M  END
$$$$
