
 OpenBabel04232216593D

232231  0  0  1  0  0  0  0  0999 V2000
    2.8474   -0.7002    0.8440 O   0  0  0  0  0  0  0  0  0  0  0  0
    2.3253    0.0268    0.0178 C   0  0  0  0  0  0  0  0  0  0  0  0
    3.0921    0.9159   -0.9430 C   0  0  3  0  0  0  0  0  0  0  0  0
    2.6684    2.3662   -0.7186 C   0  0  0  0  0  0  0  0  0  0  0  0
    4.5975    0.7293   -0.7402 C   0  0  0  0  0  0  0  0  0  0  0  0
    5.3970    1.6127   -1.6858 C   0  0  0  0  0  0  0  0  0  0  0  0
    6.8841    1.4216   -1.4827 C   0  0  0  0  0  0  0  0  0  0  0  0
    7.6373    2.3235   -2.4440 C   0  0  0  0  0  0  0  0  0  0  0  0
    9.1282    2.1440   -2.2485 C   0  0  0  0  0  0  0  0  0  0  0  0
    9.8865    3.0419   -3.2063 C   0  0  0  0  0  0  0  0  0  0  0  0
   11.3782    2.8556   -3.0078 C   0  0  0  0  0  0  0  0  0  0  0  0
   12.1400    3.7506   -3.9656 C   0  0  0  0  0  0  0  0  0  0  0  0
   13.6319    3.5653   -3.7656 C   0  0  0  0  0  0  0  0  0  0  0  0
   14.3943    4.4617   -4.7222 C   0  0  0  0  0  0  0  0  0  0  0  0
   15.8862    4.2779   -4.5208 C   0  0  0  0  0  0  0  0  0  0  0  0
   16.6487    5.1745   -5.4774 C   0  0  0  0  0  0  0  0  0  0  0  0
   18.1406    4.9893   -5.2774 C   0  0  0  0  0  0  0  0  0  0  0  0
   18.9029    5.8873   -6.2327 C   0  0  0  0  0  0  0  0  0  0  0  0
   20.3948    5.7006   -6.0341 C   0  0  0  0  0  0  0  0  0  0  0  0
   21.1572    6.6001   -6.9880 C   0  0  0  0  0  0  0  0  0  0  0  0
   22.6492    6.4120   -6.7908 C   0  0  0  0  0  0  0  0  0  0  0  0
   23.4116    7.3101   -7.7461 C   0  0  0  0  0  0  0  0  0  0  0  0
   24.9036    7.1234   -7.5476 C   0  0  0  0  0  0  0  0  0  0  0  0
   25.6660    8.0229   -8.5015 C   0  0  0  0  0  0  0  0  0  0  0  0
   27.1580    7.8348   -8.3043 C   0  0  0  0  0  0  0  0  0  0  0  0
   27.9204    8.7343   -9.2582 C   0  0  0  0  0  0  0  0  0  0  0  0
   29.4124    8.5476   -9.0597 C   0  0  0  0  0  0  0  0  0  0  0  0
   30.1748    9.4471  -10.0136 C   0  0  0  0  0  0  0  0  0  0  0  0
   31.6668    9.2605   -9.8150 C   0  0  0  0  0  0  0  0  0  0  0  0
   32.4292   10.1600  -10.7689 C   0  0  0  0  0  0  0  0  0  0  0  0
   33.9212    9.9748  -10.5690 C   0  0  0  0  0  0  0  0  0  0  0  0
   34.6837   10.8743  -11.5229 C   0  0  0  0  0  0  0  0  0  0  0  0
   36.1757   10.6891  -11.3229 C   0  0  0  0  0  0  0  0  0  0  0  0
   36.9381   11.5886  -12.2769 C   0  0  0  0  0  0  0  0  0  0  0  0
   38.4301   11.4020  -12.0783 C   0  0  0  0  0  0  0  0  0  0  0  0
   39.1925   12.3029  -13.0308 C   0  0  0  0  0  0  0  0  0  0  0  0
   40.6845   12.1177  -12.8309 C   0  0  0  0  0  0  0  0  0  0  0  0
   41.4469   13.0172  -13.7848 C   0  0  0  0  0  0  0  0  0  0  0  0
   42.9389   12.8306  -13.5862 C   0  0  0  0  0  0  0  0  0  0  0  0
   43.7013   13.7286  -14.5415 C   0  0  0  0  0  0  0  0  0  0  0  0
   45.1933   13.5419  -14.3429 C   0  0  0  0  0  0  0  0  0  0  0  0
   45.9557   14.4400  -15.2982 C   0  0  0  0  0  0  0  0  0  0  0  0
   47.4477   14.2533  -15.0997 C   0  0  0  0  0  0  0  0  0  0  0  0
   48.2101   15.1514  -16.0550 C   0  0  0  0  0  0  0  0  0  0  0  0
   49.7021   14.9647  -15.8564 C   0  0  0  0  0  0  0  0  0  0  0  0
   50.4645   15.8627  -16.8117 C   0  0  0  0  0  0  0  0  0  0  0  0
   51.9565   15.6761  -16.6131 C   0  0  0  0  0  0  0  0  0  0  0  0
   52.7189   16.5741  -17.5684 C   0  0  0  0  0  0  0  0  0  0  0  0
   54.2109   16.3889  -17.3685 C   0  0  0  0  0  0  0  0  0  0  0  0
   54.9733   17.2884  -18.3224 C   0  0  0  0  0  0  0  0  0  0  0  0
   56.4653   17.1047  -18.1211 C   0  0  0  0  0  0  0  0  0  0  0  0
   57.2277   18.0042  -19.0750 C   0  0  0  0  0  0  0  0  0  0  0  0
   58.7197   17.8219  -18.8723 C   0  0  0  0  0  0  0  0  0  0  0  0
   59.4821   18.7229  -19.8248 C   0  0  0  0  0  0  0  0  0  0  0  0
   60.9741   18.5392  -19.6235 C   0  0  0  0  0  0  0  0  0  0  0  0
   61.7365   19.4402  -20.5760 C   0  0  0  0  0  0  0  0  0  0  0  0
   63.2285   19.2579  -20.3733 C   0  0  0  0  0  0  0  0  0  0  0  0
   63.9909   20.1589  -21.3259 C   0  0  0  0  0  0  0  0  0  0  0  0
   65.4829   19.9767  -21.1231 C   0  0  0  0  0  0  0  0  0  0  0  0
   66.2452   20.8776  -22.0757 C   0  0  0  0  0  0  0  0  0  0  0  0
   67.7372   20.6954  -21.8730 C   0  0  0  0  0  0  0  0  0  0  0  0
   68.4996   21.5964  -22.8255 C   0  0  0  0  0  0  0  0  0  0  0  0
   69.9916   21.4141  -22.6228 C   0  0  0  0  0  0  0  0  0  0  0  0
   70.7540   22.3151  -23.5753 C   0  0  0  0  0  0  0  0  0  0  0  0
   72.2460   22.1328  -23.3726 C   0  0  0  0  0  0  0  0  0  0  0  0
   73.0084   23.0338  -24.3251 C   0  0  0  0  0  0  0  0  0  0  0  0
   74.5004   22.8501  -24.1238 C   0  0  0  0  0  0  0  0  0  0  0  0
   75.2628   23.7510  -25.0763 C   0  0  0  0  0  0  0  0  0  0  0  0
   76.7548   23.5674  -24.8752 C   0  0  0  0  0  0  0  0  0  0  0  0
   77.5172   24.4684  -25.8277 C   0  0  0  0  0  0  0  0  0  0  0  0
   79.0092   24.2845  -25.6262 C   0  0  0  0  0  0  0  0  0  0  0  0
   79.7728   25.1855  -26.5787 C   0  0  0  0  0  0  0  0  0  0  0  0
   81.2660   25.0032  -26.3760 C   0  0  0  0  0  0  0  0  0  0  0  0
   82.0308   25.9042  -27.3285 C   0  0  0  0  0  0  0  0  0  0  0  0
   83.5255   25.7229  -27.1268 C   0  0  0  0  0  0  0  0  0  0  0  0
   84.2929   26.6254  -28.0780 C   0  0  0  0  0  0  0  0  0  0  0  0
   85.7918   26.4527  -27.8824 C   0  0  0  0  0  0  0  0  0  0  0  0
   86.5556   27.3535  -28.8318 C   0  0  0  0  0  0  0  0  0  0  0  0
    1.2272    0.0424   -0.0911 H   0  0  0  0  0  0  0  0  0  0  0  0
    2.8213    0.6063   -1.9607 H   0  0  0  0  0  0  0  0  0  0  0  0
    2.9399    2.6951    0.2931 H   0  0  0  0  0  0  0  0  0  0  0  0
    1.5890    2.4925   -0.8406 H   0  0  0  0  0  0  0  0  0  0  0  0
    3.1477    3.0435   -1.4323 H   0  0  0  0  0  0  0  0  0  0  0  0
    4.8657   -0.3224   -0.9034 H   0  0  0  0  0  0  0  0  0  0  0  0
    4.8694    0.9579    0.2992 H   0  0  0  0  0  0  0  0  0  0  0  0
    5.1739    2.6689   -1.5084 H   0  0  0  0  0  0  0  0  0  0  0  0
    5.1203    1.3887   -2.7231 H   0  0  0  0  0  0  0  0  0  0  0  0
    7.1582    0.3735   -1.6493 H   0  0  0  0  0  0  0  0  0  0  0  0
    7.1524    1.6738   -0.4490 H   0  0  0  0  0  0  0  0  0  0  0  0
    7.3618    3.3726   -2.2732 H   0  0  0  0  0  0  0  0  0  0  0  0
    7.3614    2.0837   -3.4785 H   0  0  0  0  0  0  0  0  0  0  0  0
    9.4017    1.0961   -2.4212 H   0  0  0  0  0  0  0  0  0  0  0  0
    9.4005    2.3857   -1.2138 H   0  0  0  0  0  0  0  0  0  0  0  0
    9.6136    4.0903   -3.0335 H   0  0  0  0  0  0  0  0  0  0  0  0
    9.6132    2.8014   -4.2410 H   0  0  0  0  0  0  0  0  0  0  0  0
   11.6500    1.8067   -3.1790 H   0  0  0  0  0  0  0  0  0  0  0  0
   11.6507    3.0967   -1.9729 H   0  0  0  0  0  0  0  0  0  0  0  0
   11.8670    4.7992   -3.7951 H   0  0  0  0  0  0  0  0  0  0  0  0
   11.8682    3.5082   -5.0004 H   0  0  0  0  0  0  0  0  0  0  0  0
   13.9049    2.5167   -3.9373 H   0  0  0  0  0  0  0  0  0  0  0  0
   13.9032    3.8062   -2.7303 H   0  0  0  0  0  0  0  0  0  0  0  0
   14.1201    5.5100   -4.5513 H   0  0  0  0  0  0  0  0  0  0  0  0
   14.1238    4.2198   -5.7573 H   0  0  0  0  0  0  0  0  0  0  0  0
   16.1603    3.2296   -4.6916 H   0  0  0  0  0  0  0  0  0  0  0  0
   16.1565    4.5198   -3.4855 H   0  0  0  0  0  0  0  0  0  0  0  0
   16.3753    6.2229   -5.3055 H   0  0  0  0  0  0  0  0  0  0  0  0
   16.3772    4.9336   -6.5126 H   0  0  0  0  0  0  0  0  0  0  0  0
   18.4139    3.9411   -5.4506 H   0  0  0  0  0  0  0  0  0  0  0  0
   18.4118    5.2288   -4.2419 H   0  0  0  0  0  0  0  0  0  0  0  0
   18.6305    6.9356   -6.0585 H   0  0  0  0  0  0  0  0  0  0  0  0
   18.6306    5.6487   -7.2682 H   0  0  0  0  0  0  0  0  0  0  0  0
   20.6673    4.6526   -6.2097 H   0  0  0  0  0  0  0  0  0  0  0  0
   20.6670    5.9379   -4.9982 H   0  0  0  0  0  0  0  0  0  0  0  0
   20.8858    7.6482   -6.8114 H   0  0  0  0  0  0  0  0  0  0  0  0
   20.8841    6.3639   -8.0239 H   0  0  0  0  0  0  0  0  0  0  0  0
   22.9205    5.3636   -6.9661 H   0  0  0  0  0  0  0  0  0  0  0  0
   22.9225    6.6496   -5.7554 H   0  0  0  0  0  0  0  0  0  0  0  0
   23.1393    8.3583   -7.5719 H   0  0  0  0  0  0  0  0  0  0  0  0
   23.1393    7.0715   -8.7816 H   0  0  0  0  0  0  0  0  0  0  0  0
   25.1761    6.0754   -7.7232 H   0  0  0  0  0  0  0  0  0  0  0  0
   25.1758    7.3606   -6.5117 H   0  0  0  0  0  0  0  0  0  0  0  0
   25.3946    9.0709   -8.3249 H   0  0  0  0  0  0  0  0  0  0  0  0
   25.3929    7.7866   -9.5373 H   0  0  0  0  0  0  0  0  0  0  0  0
   27.4295    6.7867   -8.4809 H   0  0  0  0  0  0  0  0  0  0  0  0
   27.4311    8.0710   -7.2685 H   0  0  0  0  0  0  0  0  0  0  0  0
   27.6480    9.7822   -9.0826 H   0  0  0  0  0  0  0  0  0  0  0  0
   27.6483    8.4971  -10.2941 H   0  0  0  0  0  0  0  0  0  0  0  0
   29.6850    7.4996   -9.2353 H   0  0  0  0  0  0  0  0  0  0  0  0
   29.6845    8.7848   -8.0238 H   0  0  0  0  0  0  0  0  0  0  0  0
   29.9023   10.4951   -9.8379 H   0  0  0  0  0  0  0  0  0  0  0  0
   29.9028    9.2099  -11.0495 H   0  0  0  0  0  0  0  0  0  0  0  0
   31.9394    8.2125   -9.9906 H   0  0  0  0  0  0  0  0  0  0  0  0
   31.9389    9.4977   -8.7791 H   0  0  0  0  0  0  0  0  0  0  0  0
   32.1557   11.2078  -10.5942 H   0  0  0  0  0  0  0  0  0  0  0  0
   32.1582    9.9218  -11.8048 H   0  0  0  0  0  0  0  0  0  0  0  0
   34.1948    8.9269  -10.7436 H   0  0  0  0  0  0  0  0  0  0  0  0
   34.1922   10.2130   -9.5330 H   0  0  0  0  0  0  0  0  0  0  0  0
   34.4101   11.9221  -11.3482 H   0  0  0  0  0  0  0  0  0  0  0  0
   34.4127   10.6361  -12.5588 H   0  0  0  0  0  0  0  0  0  0  0  0
   36.4492    9.6412  -11.4976 H   0  0  0  0  0  0  0  0  0  0  0  0
   36.4467   10.9273  -10.2870 H   0  0  0  0  0  0  0  0  0  0  0  0
   36.6655   12.6365  -12.1012 H   0  0  0  0  0  0  0  0  0  0  0  0
   36.6660   11.3514  -13.3128 H   0  0  0  0  0  0  0  0  0  0  0  0
   38.7028   10.3543  -12.2553 H   0  0  0  0  0  0  0  0  0  0  0  0
   38.7019   11.6378  -11.0420 H   0  0  0  0  0  0  0  0  0  0  0  0
   38.9187   13.3505  -12.8548 H   0  0  0  0  0  0  0  0  0  0  0  0
   38.9216   12.0661  -14.0671 H   0  0  0  0  0  0  0  0  0  0  0  0
   40.9580   11.0699  -13.0056 H   0  0  0  0  0  0  0  0  0  0  0  0
   40.9555   12.3559  -11.7949 H   0  0  0  0  0  0  0  0  0  0  0  0
   41.1743   14.0652  -13.6092 H   0  0  0  0  0  0  0  0  0  0  0  0
   41.1748   12.7800  -14.8206 H   0  0  0  0  0  0  0  0  0  0  0  0
   43.2112   11.7823  -13.7605 H   0  0  0  0  0  0  0  0  0  0  0  0
   43.2111   13.0691  -12.5507 H   0  0  0  0  0  0  0  0  0  0  0  0
   43.4290   14.7769  -14.3673 H   0  0  0  0  0  0  0  0  0  0  0  0
   43.4290   13.4900  -15.5770 H   0  0  0  0  0  0  0  0  0  0  0  0
   45.4656   12.4937  -14.5172 H   0  0  0  0  0  0  0  0  0  0  0  0
   45.4656   13.7805  -13.3074 H   0  0  0  0  0  0  0  0  0  0  0  0
   45.6834   15.4882  -15.1240 H   0  0  0  0  0  0  0  0  0  0  0  0
   45.6834   14.2014  -16.3337 H   0  0  0  0  0  0  0  0  0  0  0  0
   47.7200   13.2051  -15.2739 H   0  0  0  0  0  0  0  0  0  0  0  0
   47.7200   14.4919  -14.0642 H   0  0  0  0  0  0  0  0  0  0  0  0
   47.9378   16.1996  -15.8807 H   0  0  0  0  0  0  0  0  0  0  0  0
   47.9378   14.9128  -17.0905 H   0  0  0  0  0  0  0  0  0  0  0  0
   49.9744   13.9164  -16.0306 H   0  0  0  0  0  0  0  0  0  0  0  0
   49.9744   15.2033  -14.8209 H   0  0  0  0  0  0  0  0  0  0  0  0
   50.1922   16.9110  -16.6375 H   0  0  0  0  0  0  0  0  0  0  0  0
   50.1922   15.6241  -17.8472 H   0  0  0  0  0  0  0  0  0  0  0  0
   52.2288   14.6278  -16.7874 H   0  0  0  0  0  0  0  0  0  0  0  0
   52.2287   15.9147  -15.5776 H   0  0  0  0  0  0  0  0  0  0  0  0
   52.4455   17.6222  -17.3951 H   0  0  0  0  0  0  0  0  0  0  0  0
   52.4477   16.3346  -18.6040 H   0  0  0  0  0  0  0  0  0  0  0  0
   54.4845   15.3411  -17.5431 H   0  0  0  0  0  0  0  0  0  0  0  0
   54.4819   16.6271  -16.3326 H   0  0  0  0  0  0  0  0  0  0  0  0
   54.6987   18.3361  -18.1487 H   0  0  0  0  0  0  0  0  0  0  0  0
   54.7034   17.0493  -19.3584 H   0  0  0  0  0  0  0  0  0  0  0  0
   56.7400   16.0570  -18.2948 H   0  0  0  0  0  0  0  0  0  0  0  0
   56.7352   17.3439  -17.0851 H   0  0  0  0  0  0  0  0  0  0  0  0
   56.9520   19.0518  -18.9022 H   0  0  0  0  0  0  0  0  0  0  0  0
   56.9589   17.7641  -20.1110 H   0  0  0  0  0  0  0  0  0  0  0  0
   58.9956   16.7746  -19.0464 H   0  0  0  0  0  0  0  0  0  0  0  0
   58.9884   18.0607  -17.8359 H   0  0  0  0  0  0  0  0  0  0  0  0
   59.2072   19.7704  -19.6497 H   0  0  0  0  0  0  0  0  0  0  0  0
   59.2124   18.4852  -20.8612 H   0  0  0  0  0  0  0  0  0  0  0  0
   61.2490   17.4918  -19.7986 H   0  0  0  0  0  0  0  0  0  0  0  0
   61.2437   18.7770  -18.5871 H   0  0  0  0  0  0  0  0  0  0  0  0
   61.4605   20.4875  -20.4019 H   0  0  0  0  0  0  0  0  0  0  0  0
   61.4678   19.2015  -21.6124 H   0  0  0  0  0  0  0  0  0  0  0  0
   63.5044   18.2106  -20.5474 H   0  0  0  0  0  0  0  0  0  0  0  0
   63.4971   19.4967  -19.3369 H   0  0  0  0  0  0  0  0  0  0  0  0
   63.7149   21.2062  -21.1517 H   0  0  0  0  0  0  0  0  0  0  0  0
   63.7223   19.9202  -22.3623 H   0  0  0  0  0  0  0  0  0  0  0  0
   65.7588   18.9294  -21.2973 H   0  0  0  0  0  0  0  0  0  0  0  0
   65.7515   20.2154  -20.0867 H   0  0  0  0  0  0  0  0  0  0  0  0
   65.9693   21.9250  -21.9015 H   0  0  0  0  0  0  0  0  0  0  0  0
   65.9766   20.6389  -23.1121 H   0  0  0  0  0  0  0  0  0  0  0  0
   68.0132   19.6481  -22.0471 H   0  0  0  0  0  0  0  0  0  0  0  0
   68.0058   20.9341  -20.8365 H   0  0  0  0  0  0  0  0  0  0  0  0
   68.2237   22.6437  -22.6514 H   0  0  0  0  0  0  0  0  0  0  0  0
   68.2310   21.3576  -23.8619 H   0  0  0  0  0  0  0  0  0  0  0  0
   70.2676   20.3668  -22.7969 H   0  0  0  0  0  0  0  0  0  0  0  0
   70.2602   21.6529  -21.5864 H   0  0  0  0  0  0  0  0  0  0  0  0
   70.4780   23.3624  -23.4012 H   0  0  0  0  0  0  0  0  0  0  0  0
   70.4854   22.0763  -24.6117 H   0  0  0  0  0  0  0  0  0  0  0  0
   72.5219   21.0855  -23.5468 H   0  0  0  0  0  0  0  0  0  0  0  0
   72.5146   22.3716  -22.3362 H   0  0  0  0  0  0  0  0  0  0  0  0
   72.7335   24.0812  -24.1501 H   0  0  0  0  0  0  0  0  0  0  0  0
   72.7387   22.7960  -25.3615 H   0  0  0  0  0  0  0  0  0  0  0  0
   74.7753   21.8027  -24.2989 H   0  0  0  0  0  0  0  0  0  0  0  0
   74.7701   23.0879  -23.0874 H   0  0  0  0  0  0  0  0  0  0  0  0
   74.9879   24.7985  -24.9013 H   0  0  0  0  0  0  0  0  0  0  0  0
   74.9931   23.5133  -26.1128 H   0  0  0  0  0  0  0  0  0  0  0  0
   77.0297   22.5200  -25.0502 H   0  0  0  0  0  0  0  0  0  0  0  0
   77.0245   23.8051  -23.8388 H   0  0  0  0  0  0  0  0  0  0  0  0
   77.2422   25.5158  -25.6526 H   0  0  0  0  0  0  0  0  0  0  0  0
   77.2475   24.2307  -26.8640 H   0  0  0  0  0  0  0  0  0  0  0  0
   79.2838   23.2371  -25.8012 H   0  0  0  0  0  0  0  0  0  0  0  0
   79.2785   24.5222  -24.5898 H   0  0  0  0  0  0  0  0  0  0  0  0
   79.4963   26.2327  -26.4043 H   0  0  0  0  0  0  0  0  0  0  0  0
   79.5036   24.9466  -27.6150 H   0  0  0  0  0  0  0  0  0  0  0  0
   81.5399   23.9549  -26.5493 H   0  0  0  0  0  0  0  0  0  0  0  0
   81.5325   25.2411  -25.3386 H   0  0  0  0  0  0  0  0  0  0  0  0
   81.7522   26.9506  -27.1534 H   0  0  0  0  0  0  0  0  0  0  0  0
   81.7597   25.6646  -28.3640 H   0  0  0  0  0  0  0  0  0  0  0  0
   83.7987   24.6754  -27.3017 H   0  0  0  0  0  0  0  0  0  0  0  0
   83.7908   25.9597  -26.0894 H   0  0  0  0  0  0  0  0  0  0  0  0
   84.0111   27.6715  -27.9032 H   0  0  0  0  0  0  0  0  0  0  0  0
   84.0210   26.3869  -29.1140 H   0  0  0  0  0  0  0  0  0  0  0  0
   86.0734   25.4078  -28.0587 H   0  0  0  0  0  0  0  0  0  0  0  0
   86.0635   26.6927  -26.8476 H   0  0  0  0  0  0  0  0  0  0  0  0
   86.3132   27.1133  -29.8721 H   0  0  0  0  0  0  0  0  0  0  0  0
   87.6323   27.2289  -28.6907 H   0  0  0  0  0  0  0  0  0  0  0  0
   86.3032   28.4042  -28.6553 H   0  0  0  0  0  0  0  0  0  0  0  0
  1  2  2  0  0  0  0
  2  3  1  0  0  0  0
  2 79  1  0  0  0  0
  3  4  1  0  0  0  0
  3  5  1  0  0  0  0
  3 80  1  0  0  0  0
  4 81  1  0  0  0  0
  4 82  1  0  0  0  0
  4 83  1  0  0  0  0
  5  6  1  0  0  0  0
  5 84  1  0  0  0  0
  5 85  1  0  0  0  0
  6  7  1  0  0  0  0
  6 86  1  0  0  0  0
  6 87  1  0  0  0  0
  7  8  1  0  0  0  0
  7 88  1  0  0  0  0
  7 89  1  0  0  0  0
  8  9  1  0  0  0  0
  8 90  1  0  0  0  0
  8 91  1  0  0  0  0
  9 10  1  0  0  0  0
  9 92  1  0  0  0  0
  9 93  1  0  0  0  0
 10 11  1  0  0  0  0
 10 94  1  0  0  0  0
 10 95  1  0  0  0  0
 11 12  1  0  0  0  0
 11 96  1  0  0  0  0
 11 97  1  0  0  0  0
 12 13  1  0  0  0  0
 12 98  1  0  0  0  0
 12 99  1  0  0  0  0
 13 14  1  0  0  0  0
 13100  1  0  0  0  0
 13101  1  0  0  0  0
 14 15  1  0  0  0  0
 14102  1  0  0  0  0
 14103  1  0  0  0  0
 15 16  1  0  0  0  0
 15104  1  0  0  0  0
 15105  1  0  0  0  0
 16 17  1  0  0  0  0
 16106  1  0  0  0  0
 16107  1  0  0  0  0
 17 18  1  0  0  0  0
 17108  1  0  0  0  0
 17109  1  0  0  0  0
 18 19  1  0  0  0  0
 18110  1  0  0  0  0
 18111  1  0  0  0  0
 19 20  1  0  0  0  0
 19112  1  0  0  0  0
 19113  1  0  0  0  0
 20 21  1  0  0  0  0
 20114  1  0  0  0  0
 20115  1  0  0  0  0
 21 22  1  0  0  0  0
 21116  1  0  0  0  0
 21117  1  0  0  0  0
 22 23  1  0  0  0  0
 22118  1  0  0  0  0
 22119  1  0  0  0  0
 23 24  1  0  0  0  0
 23120  1  0  0  0  0
 23121  1  0  0  0  0
 24 25  1  0  0  0  0
 24122  1  0  0  0  0
 24123  1  0  0  0  0
 25 26  1  0  0  0  0
 25124  1  0  0  0  0
 25125  1  0  0  0  0
 26 27  1  0  0  0  0
 26126  1  0  0  0  0
 26127  1  0  0  0  0
 27 28  1  0  0  0  0
 27128  1  0  0  0  0
 27129  1  0  0  0  0
 28 29  1  0  0  0  0
 28130  1  0  0  0  0
 28131  1  0  0  0  0
 29 30  1  0  0  0  0
 29132  1  0  0  0  0
 29133  1  0  0  0  0
 30 31  1  0  0  0  0
 30134  1  0  0  0  0
 30135  1  0  0  0  0
 31 32  1  0  0  0  0
 31136  1  0  0  0  0
 31137  1  0  0  0  0
 32 33  1  0  0  0  0
 32138  1  0  0  0  0
 32139  1  0  0  0  0
 33 34  1  0  0  0  0
 33140  1  0  0  0  0
 33141  1  0  0  0  0
 34 35  1  0  0  0  0
 34142  1  0  0  0  0
 34143  1  0  0  0  0
 35 36  1  0  0  0  0
 35144  1  0  0  0  0
 35145  1  0  0  0  0
 36 37  1  0  0  0  0
 36146  1  0  0  0  0
 36147  1  0  0  0  0
 37 38  1  0  0  0  0
 37148  1  0  0  0  0
 37149  1  0  0  0  0
 38 39  1  0  0  0  0
 38150  1  0  0  0  0
 38151  1  0  0  0  0
 39 40  1  0  0  0  0
 39152  1  0  0  0  0
 39153  1  0  0  0  0
 40 41  1  0  0  0  0
 40154  1  0  0  0  0
 40155  1  0  0  0  0
 41 42  1  0  0  0  0
 41156  1  0  0  0  0
 41157  1  0  0  0  0
 42 43  1  0  0  0  0
 42158  1  0  0  0  0
 42159  1  0  0  0  0
 43 44  1  0  0  0  0
 43160  1  0  0  0  0
 43161  1  0  0  0  0
 44 45  1  0  0  0  0
 44162  1  0  0  0  0
 44163  1  0  0  0  0
 45 46  1  0  0  0  0
 45164  1  0  0  0  0
 45165  1  0  0  0  0
 46 47  1  0  0  0  0
 46166  1  0  0  0  0
 46167  1  0  0  0  0
 47 48  1  0  0  0  0
 47168  1  0  0  0  0
 47169  1  0  0  0  0
 48 49  1  0  0  0  0
 48170  1  0  0  0  0
 48171  1  0  0  0  0
 49 50  1  0  0  0  0
 49172  1  0  0  0  0
 49173  1  0  0  0  0
 50 51  1  0  0  0  0
 50174  1  0  0  0  0
 50175  1  0  0  0  0
 51 52  1  0  0  0  0
 51176  1  0  0  0  0
 51177  1  0  0  0  0
 52 53  1  0  0  0  0
 52178  1  0  0  0  0
 52179  1  0  0  0  0
 53 54  1  0  0  0  0
 53180  1  0  0  0  0
 53181  1  0  0  0  0
 54 55  1  0  0  0  0
 54182  1  0  0  0  0
 54183  1  0  0  0  0
 55 56  1  0  0  0  0
 55184  1  0  0  0  0
 55185  1  0  0  0  0
 56 57  1  0  0  0  0
 56186  1  0  0  0  0
 56187  1  0  0  0  0
 57 58  1  0  0  0  0
 57188  1  0  0  0  0
 57189  1  0  0  0  0
 58 59  1  0  0  0  0
 58190  1  0  0  0  0
 58191  1  0  0  0  0
 59 60  1  0  0  0  0
 59192  1  0  0  0  0
 59193  1  0  0  0  0
 60 61  1  0  0  0  0
 60194  1  0  0  0  0
 60195  1  0  0  0  0
 61 62  1  0  0  0  0
 61196  1  0  0  0  0
 61197  1  0  0  0  0
 62 63  1  0  0  0  0
 62198  1  0  0  0  0
 62199  1  0  0  0  0
 63 64  1  0  0  0  0
 63200  1  0  0  0  0
 63201  1  0  0  0  0
 64 65  1  0  0  0  0
 64202  1  0  0  0  0
 64203  1  0  0  0  0
 65 66  1  0  0  0  0
 65204  1  0  0  0  0
 65205  1  0  0  0  0
 66 67  1  0  0  0  0
 66206  1  0  0  0  0
 66207  1  0  0  0  0
 67 68  1  0  0  0  0
 67208  1  0  0  0  0
 67209  1  0  0  0  0
 68 69  1  0  0  0  0
 68210  1  0  0  0  0
 68211  1  0  0  0  0
 69 70  1  0  0  0  0
 69212  1  0  0  0  0
 69213  1  0  0  0  0
 70 71  1  0  0  0  0
 70214  1  0  0  0  0
 70215  1  0  0  0  0
 71 72  1  0  0  0  0
 71216  1  0  0  0  0
 71217  1  0  0  0  0
 72 73  1  0  0  0  0
 72218  1  0  0  0  0
 72219  1  0  0  0  0
 73 74  1  0  0  0  0
 73220  1  0  0  0  0
 73221  1  0  0  0  0
 74 75  1  0  0  0  0
 74222  1  0  0  0  0
 74223  1  0  0  0  0
 75 76  1  0  0  0  0
 75224  1  0  0  0  0
 75225  1  0  0  0  0
 76 77  1  0  0  0  0
 76226  1  0  0  0  0
 76227  1  0  0  0  0
 77 78  1  0  0  0  0
 77228  1  0  0  0  0
 77229  1  0  0  0  0
 78230  1  0  0  0  0
 78231  1  0  0  0  0
 78232  1  0  0  0  0
M  END
$$$$
