
 OpenBabel04232216593D

136135  0  0  0  0  0  0  0  0999 V2000
    2.7893    0.4853    1.0510 O   0  0  0  0  0  0  0  0  0  0  0  0
    2.2849   -0.0366    0.0032 C   0  0  0  0  0  0  0  0  0  0  0  0
    3.0925   -0.5832   -1.1092 C   0  0  0  0  0  0  0  0  0  0  0  0
    4.5891   -0.4563   -0.8751 C   0  0  0  0  0  0  0  0  0  0  0  0
    5.3624   -1.0330   -2.0481 C   0  0  0  0  0  0  0  0  0  0  0  0
    6.8561   -0.9045   -1.8106 C   0  0  0  0  0  0  0  0  0  0  0  0
    7.6202   -1.4850   -2.9865 C   0  0  0  0  0  0  0  0  0  0  0  0
    9.1131   -1.3575   -2.7466 C   0  0  0  0  0  0  0  0  0  0  0  0
    9.8762   -1.9380   -3.9224 C   0  0  0  0  0  0  0  0  0  0  0  0
   11.3685   -1.8120   -3.6808 C   0  0  0  0  0  0  0  0  0  0  0  0
   12.1310   -2.3942   -4.8557 C   0  0  0  0  0  0  0  0  0  0  0  0
   13.6231   -2.2664   -4.6149 C   0  0  0  0  0  0  0  0  0  0  0  0
   14.3855   -2.8468   -5.7906 C   0  0  0  0  0  0  0  0  0  0  0  0
   15.8775   -2.7207   -5.5489 C   0  0  0  0  0  0  0  0  0  0  0  0
   16.6399   -3.3011   -6.7246 C   0  0  0  0  0  0  0  0  0  0  0  0
   18.1319   -3.1768   -6.4820 C   0  0  0  0  0  0  0  0  0  0  0  0
   18.8943   -3.7590   -7.6568 C   0  0  0  0  0  0  0  0  0  0  0  0
   20.3864   -3.6365   -7.4133 C   0  0  0  0  0  0  0  0  0  0  0  0
   21.1487   -4.2170   -8.5890 C   0  0  0  0  0  0  0  0  0  0  0  0
   22.6407   -4.0963   -8.3446 C   0  0  0  0  0  0  0  0  0  0  0  0
   23.4030   -4.6785   -9.5194 C   0  0  0  0  0  0  0  0  0  0  0  0
   24.8948   -4.5560   -9.2758 C   0  0  0  0  0  0  0  0  0  0  0  0
   25.6569   -5.1364  -10.4513 C   0  0  0  0  0  0  0  0  0  0  0  0
   27.1477   -5.0155  -10.2064 C   0  0  0  0  0  0  0  0  0  0  0  0
   27.9070   -5.5953  -11.3809 C   0  0  0  0  0  0  0  0  0  0  0  0
   29.3939   -5.4750  -11.1327 C   0  0  0  0  0  0  0  0  0  0  0  0
   30.1397   -6.0558  -12.3091 C   0  0  0  0  0  0  0  0  0  0  0  0
   31.6122   -5.9339  -12.0577 C   0  0  0  0  0  0  0  0  0  0  0  0
   32.3316   -6.5104  -13.2255 C   0  0  0  0  0  0  0  0  0  0  0  0
   33.6685   -6.3396  -12.8753 O   0  0  0  0  0  0  0  0  0  0  0  0
   34.3211   -6.8873  -13.9854 O   0  0  0  0  0  0  0  0  0  0  0  0
   35.6831   -6.7720  -13.7472 O   0  0  0  0  0  0  0  0  0  0  0  0
   36.3350   -7.3147  -14.8426 O   0  0  0  0  0  0  0  0  0  0  0  0
   37.6849   -7.1848  -14.5795 O   0  0  0  0  0  0  0  0  0  0  0  0
   38.3336   -7.7251  -15.6644 O   0  0  0  0  0  0  0  0  0  0  0  0
   39.6761   -7.5896  -15.3954 O   0  0  0  0  0  0  0  0  0  0  0  0
   40.3174   -8.1270  -16.4808 O   0  0  0  0  0  0  0  0  0  0  0  0
   41.6511   -7.9937  -16.2099 O   0  0  0  0  0  0  0  0  0  0  0  0
   42.2851   -8.5334  -17.2949 O   0  0  0  0  0  0  0  0  0  0  0  0
   43.6157   -8.3960  -17.0224 O   0  0  0  0  0  0  0  0  0  0  0  0
   44.2479   -8.9369  -18.1039 O   0  0  0  0  0  0  0  0  0  0  0  0
   45.5769   -8.8011  -17.8290 O   0  0  0  0  0  0  0  0  0  0  0  0
   46.2069   -9.3392  -18.9119 O   0  0  0  0  0  0  0  0  0  0  0  0
   47.5352   -9.2053  -18.6355 O   0  0  0  0  0  0  0  0  0  0  0  0
   48.1648   -9.7456  -19.7173 O   0  0  0  0  0  0  0  0  0  0  0  0
   49.4930   -9.6091  -19.4421 O   0  0  0  0  0  0  0  0  0  0  0  0
   50.1226  -10.1514  -20.5229 O   0  0  0  0  0  0  0  0  0  0  0  0
   51.4508  -10.0173  -20.2464 O   0  0  0  0  0  0  0  0  0  0  0  0
   52.0804  -10.5575  -21.3282 O   0  0  0  0  0  0  0  0  0  0  0  0
   53.4086  -10.4211  -21.0529 O   0  0  0  0  0  0  0  0  0  0  0  0
   54.0381  -10.9597  -22.1356 O   0  0  0  0  0  0  0  0  0  0  0  0
   55.3663  -10.8257  -21.8590 O   0  0  0  0  0  0  0  0  0  0  0  0
   55.9959  -11.3622  -22.9427 O   0  0  0  0  0  0  0  0  0  0  0  0
   57.3241  -11.2261  -22.6672 O   0  0  0  0  0  0  0  0  0  0  0  0
   57.9537  -11.7647  -23.7498 O   0  0  0  0  0  0  0  0  0  0  0  0
   59.2819  -11.6265  -23.4754 O   0  0  0  0  0  0  0  0  0  0  0  0
   59.9115  -12.1672  -24.5570 O   0  0  0  0  0  0  0  0  0  0  0  0
   61.2397  -12.0315  -24.2814 O   0  0  0  0  0  0  0  0  0  0  0  0
   61.8693  -12.5700  -25.3640 O   0  0  0  0  0  0  0  0  0  0  0  0
   63.1975  -12.4319  -25.0895 O   0  0  0  0  0  0  0  0  0  0  0  0
   63.8270  -12.9685  -26.1731 O   0  0  0  0  0  0  0  0  0  0  0  0
   65.1552  -12.8324  -25.8977 O   0  0  0  0  0  0  0  0  0  0  0  0
   65.7848  -13.3714  -26.9801 O   0  0  0  0  0  0  0  0  0  0  0  0
   67.1130  -13.2369  -26.7038 O   0  0  0  0  0  0  0  0  0  0  0  0
   67.7426  -13.7734  -27.7875 O   0  0  0  0  0  0  0  0  0  0  0  0
   69.0709  -13.6411  -27.5102 O   0  0  0  0  0  0  0  0  0  0  0  0
   69.7007  -14.1797  -28.5928 O   0  0  0  0  0  0  0  0  0  0  0  0
   71.0293  -14.0450  -28.3170 O   0  0  0  0  0  0  0  0  0  0  0  0
   71.6604  -14.5852  -29.3991 O   0  0  0  0  0  0  0  0  0  0  0  0
   72.9907  -14.4537  -29.1243 O   0  0  0  0  0  0  0  0  0  0  0  0
   73.6240  -14.9965  -30.2058 O   0  0  0  0  0  0  0  0  0  0  0  0
   74.9585  -14.8668  -29.9293 O   0  0  0  0  0  0  0  0  0  0  0  0
   75.5975  -15.4073  -31.0127 O   0  0  0  0  0  0  0  0  0  0  0  0
   76.9379  -15.2791  -30.7457 O   0  0  0  0  0  0  0  0  0  0  0  0
   77.5839  -15.8258  -31.8357 O   0  0  0  0  0  0  0  0  0  0  0  0
   78.9369  -15.7003  -31.5699 O   0  0  0  0  0  0  0  0  0  0  0  0
   79.6269  -16.2592  -32.6358 O   0  0  0  0  0  0  0  0  0  0  0  0
   81.0049  -16.1485  -32.3582 O   0  0  0  0  0  0  0  0  0  0  0  0
   81.6961  -16.6618  -33.4960 O   0  0  0  0  0  0  0  0  0  0  0  0
   81.2963  -15.9143  -34.6752 O   0  0  0  0  0  0  0  0  0  0  0  0
    1.2066   -0.0902   -0.0917 H   0  0  0  0  0  0  0  0  0  0  0  0
    2.8073   -0.0439   -2.0220 H   0  0  0  0  0  0  0  0  0  0  0  0
    2.8186   -1.6395   -1.2301 H   0  0  0  0  0  0  0  0  0  0  0  0
    4.8728   -0.9787    0.0500 H   0  0  0  0  0  0  0  0  0  0  0  0
    4.8616    0.5995   -0.7334 H   0  0  0  0  0  0  0  0  0  0  0  0
    5.0863   -0.5064   -2.9696 H   0  0  0  0  0  0  0  0  0  0  0  0
    5.0975   -2.0886   -2.1842 H   0  0  0  0  0  0  0  0  0  0  0  0
    7.1349   -1.4311   -0.8892 H   0  0  0  0  0  0  0  0  0  0  0  0
    7.1241    0.1511   -1.6772 H   0  0  0  0  0  0  0  0  0  0  0  0
    7.3447   -0.9580   -3.9085 H   0  0  0  0  0  0  0  0  0  0  0  0
    7.3534   -2.5406   -3.1216 H   0  0  0  0  0  0  0  0  0  0  0  0
    9.3899   -1.8849   -1.8253 H   0  0  0  0  0  0  0  0  0  0  0  0
    9.3813   -0.3023   -2.6121 H   0  0  0  0  0  0  0  0  0  0  0  0
    9.6012   -1.4099   -4.8437 H   0  0  0  0  0  0  0  0  0  0  0  0
    9.6077   -2.9930   -4.0579 H   0  0  0  0  0  0  0  0  0  0  0  0
   11.6437   -2.3391   -2.7589 H   0  0  0  0  0  0  0  0  0  0  0  0
   11.6375   -0.7570   -3.5468 H   0  0  0  0  0  0  0  0  0  0  0  0
   11.8550   -1.8682   -5.7779 H   0  0  0  0  0  0  0  0  0  0  0  0
   11.8632   -3.4497   -4.9889 H   0  0  0  0  0  0  0  0  0  0  0  0
   13.8994   -2.7936   -3.6934 H   0  0  0  0  0  0  0  0  0  0  0  0
   13.8908   -1.2111   -4.4804 H   0  0  0  0  0  0  0  0  0  0  0  0
   14.1103   -2.3185   -6.7119 H   0  0  0  0  0  0  0  0  0  0  0  0
   14.1168   -3.9017   -5.9261 H   0  0  0  0  0  0  0  0  0  0  0  0
   16.1527   -3.2489   -4.6277 H   0  0  0  0  0  0  0  0  0  0  0  0
   16.1463   -1.6657   -5.4134 H   0  0  0  0  0  0  0  0  0  0  0  0
   16.3658   -2.7719   -7.6457 H   0  0  0  0  0  0  0  0  0  0  0  0
   16.3701   -4.3556   -6.8610 H   0  0  0  0  0  0  0  0  0  0  0  0
   18.4059   -3.7048   -5.5603 H   0  0  0  0  0  0  0  0  0  0  0  0
   18.4020   -2.1221   -6.3470 H   0  0  0  0  0  0  0  0  0  0  0  0
   18.6214   -3.2301   -8.5784 H   0  0  0  0  0  0  0  0  0  0  0  0
   18.6233   -4.8133   -7.7927 H   0  0  0  0  0  0  0  0  0  0  0  0
   20.6593   -4.1667   -6.4925 H   0  0  0  0  0  0  0  0  0  0  0  0
   20.6573   -2.5824   -7.2761 H   0  0  0  0  0  0  0  0  0  0  0  0
   20.8768   -3.6859   -9.5096 H   0  0  0  0  0  0  0  0  0  0  0  0
   20.8768   -5.2708   -8.7271 H   0  0  0  0  0  0  0  0  0  0  0  0
   22.9126   -4.6262   -7.4233 H   0  0  0  0  0  0  0  0  0  0  0  0
   22.9129   -3.0424   -8.2078 H   0  0  0  0  0  0  0  0  0  0  0  0
   23.1303   -4.1496  -10.4410 H   0  0  0  0  0  0  0  0  0  0  0  0
   23.1320   -5.7328   -9.6553 H   0  0  0  0  0  0  0  0  0  0  0  0
   25.1681   -5.0862   -8.3550 H   0  0  0  0  0  0  0  0  0  0  0  0
   25.1661   -3.5019   -9.1386 H   0  0  0  0  0  0  0  0  0  0  0  0
   25.3853   -4.6054  -11.3721 H   0  0  0  0  0  0  0  0  0  0  0  0
   25.3854   -6.1903  -10.5897 H   0  0  0  0  0  0  0  0  0  0  0  0
   27.4209   -5.5468   -9.2862 H   0  0  0  0  0  0  0  0  0  0  0  0
   27.4210   -3.9618  -10.0686 H   0  0  0  0  0  0  0  0  0  0  0  0
   27.6388   -5.0640  -12.3027 H   0  0  0  0  0  0  0  0  0  0  0  0
   27.6367   -6.6493  -11.5215 H   0  0  0  0  0  0  0  0  0  0  0  0
   29.6713   -6.0085  -10.2151 H   0  0  0  0  0  0  0  0  0  0  0  0
   29.6734   -4.4229  -10.9964 H   0  0  0  0  0  0  0  0  0  0  0  0
   29.8797   -5.5245  -13.2318 H   0  0  0  0  0  0  0  0  0  0  0  0
   29.8775   -7.1105  -12.4503 H   0  0  0  0  0  0  0  0  0  0  0  0
   31.9178   -6.4618  -11.1427 H   0  0  0  0  0  0  0  0  0  0  0  0
   31.9199   -4.8872  -11.9186 H   0  0  0  0  0  0  0  0  0  0  0  0
   32.1296   -5.9711  -14.1571 H   0  0  0  0  0  0  0  0  0  0  0  0
   32.1274   -7.5772  -13.3656 H   0  0  0  0  0  0  0  0  0  0  0  0
   81.8511  -16.4349  -35.2729 H   0  0  0  0  0  0  0  0  0  0  0  0
  1  2  2  0  0  0  0
  2  3  1  0  0  0  0
  2 81  1  0  0  0  0
  3  4  1  0  0  0  0
  3 82  1  0  0  0  0
  3 83  1  0  0  0  0
  4  5  1  0  0  0  0
  4 84  1  0  0  0  0
  4 85  1  0  0  0  0
  5  6  1  0  0  0  0
  5 86  1  0  0  0  0
  5 87  1  0  0  0  0
  6  7  1  0  0  0  0
  6 88  1  0  0  0  0
  6 89  1  0  0  0  0
  7  8  1  0  0  0  0
  7 90  1  0  0  0  0
  7 91  1  0  0  0  0
  8  9  1  0  0  0  0
  8 92  1  0  0  0  0
  8 93  1  0  0  0  0
  9 10  1  0  0  0  0
  9 94  1  0  0  0  0
  9 95  1  0  0  0  0
 10 11  1  0  0  0  0
 10 96  1  0  0  0  0
 10 97  1  0  0  0  0
 11 12  1  0  0  0  0
 11 98  1  0  0  0  0
 11 99  1  0  0  0  0
 12 13  1  0  0  0  0
 12100  1  0  0  0  0
 12101  1  0  0  0  0
 13 14  1  0  0  0  0
 13102  1  0  0  0  0
 13103  1  0  0  0  0
 14 15  1  0  0  0  0
 14104  1  0  0  0  0
 14105  1  0  0  0  0
 15 16  1  0  0  0  0
 15106  1  0  0  0  0
 15107  1  0  0  0  0
 16 17  1  0  0  0  0
 16108  1  0  0  0  0
 16109  1  0  0  0  0
 17 18  1  0  0  0  0
 17110  1  0  0  0  0
 17111  1  0  0  0  0
 18 19  1  0  0  0  0
 18112  1  0  0  0  0
 18113  1  0  0  0  0
 19 20  1  0  0  0  0
 19114  1  0  0  0  0
 19115  1  0  0  0  0
 20 21  1  0  0  0  0
 20116  1  0  0  0  0
 20117  1  0  0  0  0
 21 22  1  0  0  0  0
 21118  1  0  0  0  0
 21119  1  0  0  0  0
 22 23  1  0  0  0  0
 22120  1  0  0  0  0
 22121  1  0  0  0  0
 23 24  1  0  0  0  0
 23122  1  0  0  0  0
 23123  1  0  0  0  0
 24 25  1  0  0  0  0
 24124  1  0  0  0  0
 24125  1  0  0  0  0
 25 26  1  0  0  0  0
 25126  1  0  0  0  0
 25127  1  0  0  0  0
 26 27  1  0  0  0  0
 26128  1  0  0  0  0
 26129  1  0  0  0  0
 27 28  1  0  0  0  0
 27130  1  0  0  0  0
 27131  1  0  0  0  0
 28 29  1  0  0  0  0
 28132  1  0  0  0  0
 28133  1  0  0  0  0
 29 30  1  0  0  0  0
 29134  1  0  0  0  0
 29135  1  0  0  0  0
 30 31  1  0  0  0  0
 31 32  1  0  0  0  0
 32 33  1  0  0  0  0
 33 34  1  0  0  0  0
 34 35  1  0  0  0  0
 35 36  1  0  0  0  0
 36 37  1  0  0  0  0
 37 38  1  0  0  0  0
 38 39  1  0  0  0  0
 39 40  1  0  0  0  0
 40 41  1  0  0  0  0
 41 42  1  0  0  0  0
 42 43  1  0  0  0  0
 43 44  1  0  0  0  0
 44 45  1  0  0  0  0
 45 46  1  0  0  0  0
 46 47  1  0  0  0  0
 47 48  1  0  0  0  0
 48 49  1  0  0  0  0
 49 50  1  0  0  0  0
 50 51  1  0  0  0  0
 51 52  1  0  0  0  0
 52 53  1  0  0  0  0
 53 54  1  0  0  0  0
 54 55  1  0  0  0  0
 55 56  1  0  0  0  0
 56 57  1  0  0  0  0
 57 58  1  0  0  0  0
 58 59  1  0  0  0  0
 59 60  1  0  0  0  0
 60 61  1  0  0  0  0
 61 62  1  0  0  0  0
 62 63  1  0  0  0  0
 63 64  1  0  0  0  0
 64 65  1  0  0  0  0
 65 66  1  0  0  0  0
 66 67  1  0  0  0  0
 67 68  1  0  0  0  0
 68 69  1  0  0  0  0
 69 70  1  0  0  0  0
 70 71  1  0  0  0  0
 71 72  1  0  0  0  0
 72 73  1  0  0  0  0
 73 74  1  0  0  0  0
 74 75  1  0  0  0  0
 75 76  1  0  0  0  0
 76 77  1  0  0  0  0
 77 78  1  0  0  0  0
 78 79  1  0  0  0  0
 79 80  1  0  0  0  0
 80136  1  0  0  0  0
M  END
$$$$
