
 OpenBabel04232216513D

 65 66  0  0  0  0  0  0  0  0999 V2000
    2.9333   -2.2373   -3.4488 C   0  0  0  0  0  0  0  0  0  0  0  0
    3.1061   -1.1923   -2.3566 C   0  0  0  0  0  0  0  0  0  0  0  0
    3.7872   -1.7355   -1.0749 C   0  0  0  0  0  0  0  0  0  0  0  0
    5.3115   -1.8090   -1.0880 C   0  0  0  0  0  0  0  0  0  0  0  0
    6.2089   -2.9775   -1.0390 C   0  0  0  0  0  0  0  0  0  0  0  0
    5.4382   -4.3215   -0.9268 C   0  0  0  0  0  0  0  0  0  0  0  0
    5.9318   -5.5983   -1.6178 C   0  0  0  0  0  0  0  0  0  0  0  0
    4.9858   -6.8023   -1.4554 C   0  0  0  0  0  0  0  0  0  0  0  0
    5.6263   -8.0206   -2.0832 C   0  0  0  0  0  0  0  0  0  0  0  0
    6.0441   -9.0982   -1.3961 C   0  0  0  0  0  0  0  0  0  0  0  0
    6.7471  -10.2821   -2.0078 C   0  0  0  0  0  0  0  0  0  0  0  0
    8.2605  -10.1771   -1.8366 C   0  0  0  0  0  0  0  0  0  0  0  0
    8.9881  -11.4007   -2.3346 C   0  0  0  0  0  0  0  0  0  0  0  0
    8.4443  -12.4013   -2.7926 O   0  0  0  0  0  0  0  0  0  0  0  0
    7.7242   -2.8077   -0.9355 C   0  0  0  0  0  0  0  0  0  0  0  0
    8.1417   -1.4320   -0.8475 C   0  0  0  0  0  0  0  0  0  0  0  0
    9.4786   -0.7553   -0.6079 C   0  0  0  0  0  0  0  0  0  0  0  0
   10.6260   -1.6564   -0.7259 C   0  0  0  0  0  0  0  0  0  0  0  0
   12.0260   -1.0288   -0.7036 C   0  0  0  0  0  0  0  0  0  0  0  0
   12.9543   -1.5424   -1.5566 C   0  0  0  0  0  0  0  0  0  0  0  0
   13.5166   -2.9655   -1.2233 C   0  0  0  0  0  0  0  0  0  0  0  0
   12.2376   -3.8034   -1.2613 C   0  0  0  0  0  0  0  0  0  0  0  0
   11.6838   -5.1519   -0.9955 C   0  0  0  0  0  0  0  0  0  0  0  0
   10.0486   -5.1358   -0.8986 C   0  0  0  0  0  0  0  0  0  0  0  0
    8.6754   -4.1198   -1.1228 C   0  0  0  0  0  0  0  0  0  0  0  0
    7.2011   -0.3834   -0.9173 C   0  0  0  0  0  0  0  0  0  0  0  0
    5.8524   -0.5365   -1.0614 C   0  0  0  0  0  0  0  0  0  0  0  0
    2.4171   -1.7982   -4.3079 H   0  0  0  0  0  0  0  0  0  0  0  0
    2.3259   -3.0692   -3.0821 H   0  0  0  0  0  0  0  0  0  0  0  0
    3.8944   -2.6275   -3.7778 H   0  0  0  0  0  0  0  0  0  0  0  0
    2.1072   -0.8248   -2.0908 H   0  0  0  0  0  0  0  0  0  0  0  0
    3.6404   -0.3255   -2.7657 H   0  0  0  0  0  0  0  0  0  0  0  0
    3.2920   -2.6651   -0.7461 H   0  0  0  0  0  0  0  0  0  0  0  0
    3.5131   -1.0247   -0.2836 H   0  0  0  0  0  0  0  0  0  0  0  0
    4.4445   -4.1732   -1.3572 H   0  0  0  0  0  0  0  0  0  0  0  0
    5.2709   -4.5066    0.1430 H   0  0  0  0  0  0  0  0  0  0  0  0
    6.8783   -5.9152   -1.1972 H   0  0  0  0  0  0  0  0  0  0  0  0
    6.0812   -5.3861   -2.6800 H   0  0  0  0  0  0  0  0  0  0  0  0
    4.0214   -6.6165   -1.9418 H   0  0  0  0  0  0  0  0  0  0  0  0
    4.7784   -6.9823   -0.3925 H   0  0  0  0  0  0  0  0  0  0  0  0
    5.7894   -7.9748   -3.1578 H   0  0  0  0  0  0  0  0  0  0  0  0
    5.8890   -9.1439   -0.3196 H   0  0  0  0  0  0  0  0  0  0  0  0
    6.4950  -10.3750   -3.0736 H   0  0  0  0  0  0  0  0  0  0  0  0
    6.3760  -11.1958   -1.5273 H   0  0  0  0  0  0  0  0  0  0  0  0
    8.5285  -10.0487   -0.7822 H   0  0  0  0  0  0  0  0  0  0  0  0
    8.6494   -9.3162   -2.3934 H   0  0  0  0  0  0  0  0  0  0  0  0
   10.0889  -11.3498   -2.2593 H   0  0  0  0  0  0  0  0  0  0  0  0
    9.4653   -0.3269    0.4018 H   0  0  0  0  0  0  0  0  0  0  0  0
    9.6058    0.0506   -1.3298 H   0  0  0  0  0  0  0  0  0  0  0  0
   10.4699   -2.2157   -1.6516 H   0  0  0  0  0  0  0  0  0  0  0  0
   10.5210   -2.3230    0.1439 H   0  0  0  0  0  0  0  0  0  0  0  0
   12.3372   -0.8890    0.3342 H   0  0  0  0  0  0  0  0  0  0  0  0
   12.6469   -1.5556   -2.6129 H   0  0  0  0  0  0  0  0  0  0  0  0
   13.9895   -2.9256   -0.2329 H   0  0  0  0  0  0  0  0  0  0  0  0
   14.2731   -3.2457   -1.9614 H   0  0  0  0  0  0  0  0  0  0  0  0
   11.7600   -3.5558   -2.2122 H   0  0  0  0  0  0  0  0  0  0  0  0
   11.8214   -3.4271   -0.3431 H   0  0  0  0  0  0  0  0  0  0  0  0
   12.0886   -5.5421   -0.0486 H   0  0  0  0  0  0  0  0  0  0  0  0
   12.0223   -5.8590   -1.7645 H   0  0  0  0  0  0  0  0  0  0  0  0
    9.8437   -5.7073    0.0182 H   0  0  0  0  0  0  0  0  0  0  0  0
    9.8392   -5.8785   -1.6910 H   0  0  0  0  0  0  0  0  0  0  0  0
    8.0960   -4.7048   -0.3962 H   0  0  0  0  0  0  0  0  0  0  0  0
    8.3884   -4.4101   -2.1446 H   0  0  0  0  0  0  0  0  0  0  0  0
    7.5408    0.6634   -0.8345 H   0  0  0  0  0  0  0  0  0  0  0  0
    5.2294    0.3485   -1.0897 H   0  0  0  0  0  0  0  0  0  0  0  0
  1  2  1  0  0  0  0
  1 28  1  0  0  0  0
  1 29  1  0  0  0  0
  1 30  1  0  0  0  0
  2  3  1  0  0  0  0
  2 31  1  0  0  0  0
  2 32  1  0  0  0  0
  3  4  1  0  0  0  0
  3 33  1  0  0  0  0
  3 34  1  0  0  0  0
  4  5  1  0  0  0  0
  4 27  2  0  0  0  0
  5  6  1  0  0  0  0
  5 15  2  0  0  0  0
  6  7  1  0  0  0  0
  6 35  1  0  0  0  0
  6 36  1  0  0  0  0
  7  8  1  0  0  0  0
  7 37  1  0  0  0  0
  7 38  1  0  0  0  0
  8  9  1  0  0  0  0
  8 39  1  0  0  0  0
  8 40  1  0  0  0  0
  9 10  2  3  0  0  0
  9 41  1  0  0  0  0
 10 11  1  0  0  0  0
 10 42  1  0  0  0  0
 11 12  1  0  0  0  0
 11 43  1  0  0  0  0
 11 44  1  0  0  0  0
 12 13  1  0  0  0  0
 12 45  1  0  0  0  0
 12 46  1  0  0  0  0
 13 14  2  0  0  0  0
 13 47  1  0  0  0  0
 15 16  1  0  0  0  0
 15 25  1  0  0  0  0
 16 17  1  0  0  0  0
 16 26  2  0  0  0  0
 17 18  1  0  0  0  0
 17 48  1  0  0  0  0
 17 49  1  0  0  0  0
 18 19  1  0  0  0  0
 18 50  1  0  0  0  0
 18 51  1  0  0  0  0
 19 20  2  3  0  0  0
 19 52  1  0  0  0  0
 20 21  1  0  0  0  0
 20 53  1  0  0  0  0
 21 22  1  0  0  0  0
 21 54  1  0  0  0  0
 21 55  1  0  0  0  0
 22 23  1  0  0  0  0
 22 56  1  0  0  0  0
 22 57  1  0  0  0  0
 23 24  1  0  0  0  0
 23 58  1  0  0  0  0
 23 59  1  0  0  0  0
 24 25  1  0  0  0  0
 24 60  1  0  0  0  0
 24 61  1  0  0  0  0
 25 62  1  0  0  0  0
 25 63  1  0  0  0  0
 26 27  1  0  0  0  0
 26 64  1  0  0  0  0
 27 65  1  0  0  0  0
M  END
$$$$
