
 OpenBabel04232216563D

224224  0  0  1  0  0  0  0  0999 V2000
   -6.0714    5.2900  -21.5590 C   0  0  0  0  0  0  0  0  0  0  0  0
   -6.0714    6.3710  -20.6009 N   0  0  0  0  0  0  0  0  0  0  0  0
   -7.0572    6.6440  -19.6846 C   0  0  0  0  0  0  0  0  0  0  0  0
   -7.0348    7.9178  -19.2843 C   0  0  0  0  0  0  0  0  0  0  0  0
   -5.9757    8.6636  -20.0457 C   0  0  0  0  0  0  0  0  0  0  0  0
   -5.1937    7.5390  -20.7902 C   0  0  3  0  0  0  0  0  0  0  0  0
   -3.8274    7.2297  -20.1613 C   0  0  0  0  0  0  0  0  0  0  0  0
   -2.8705    8.4166  -20.1917 C   0  0  0  0  0  0  0  0  0  0  0  0
   -1.5456    8.0593  -19.5277 C   0  0  0  0  0  0  0  0  0  0  0  0
   -0.6314    9.2764  -19.5043 C   0  0  0  0  0  0  0  0  0  0  0  0
    0.6946    8.9393  -18.8393 C   0  0  0  0  0  0  0  0  0  0  0  0
    1.6004   10.1612  -18.8282 C   0  0  0  0  0  0  0  0  0  0  0  0
    2.9294    9.8249  -18.1725 C   0  0  0  0  0  0  0  0  0  0  0  0
    3.8376   11.0438  -18.1652 C   0  0  0  0  0  0  0  0  0  0  0  0
    5.1643   10.6995  -17.5094 C   0  0  0  0  0  0  0  0  0  0  0  0
    6.0794   11.9125  -17.4985 C   0  0  0  0  0  0  0  0  0  0  0  0
    7.4026   11.5606  -16.8427 C   0  0  0  0  0  0  0  0  0  0  0  0
    8.3216   12.7711  -16.8320 C   0  0  0  0  0  0  0  0  0  0  0  0
    9.6475   12.4221  -16.1768 C   0  0  0  0  0  0  0  0  0  0  0  0
   10.5597   13.6371  -16.1720 C   0  0  0  0  0  0  0  0  0  0  0  0
   11.8923   13.3056  -15.5220 C   0  0  0  0  0  0  0  0  0  0  0  0
   12.7857   14.5293  -15.5207 C   0  0  0  0  0  0  0  0  0  0  0  0
   14.0060   14.1878  -14.8703 O   0  0  0  0  0  0  0  0  0  0  0  0
   14.8806   15.3092  -14.8495 C   0  0  0  0  0  0  0  0  0  0  0  0
   14.3081   16.3637  -14.0914 O   0  0  0  0  0  0  0  0  0  0  0  0
   15.1450   17.5070  -14.0981 C   0  0  0  0  0  0  0  0  0  0  0  0
   15.3512   17.9806  -15.4224 O   0  0  0  0  0  0  0  0  0  0  0  0
   16.2363   19.0919  -15.4382 C   0  0  0  0  0  0  0  0  0  0  0  0
   16.4682   19.4880  -16.8835 C   0  0  0  0  0  0  0  0  0  0  0  0
   17.4032   20.6828  -16.9370 C   0  0  0  0  0  0  0  0  0  0  0  0
   17.6593   21.1111  -18.3743 C   0  0  0  0  0  0  0  0  0  0  0  0
   18.5932   22.3099  -18.3862 C   0  0  0  0  0  0  0  0  0  0  0  0
   18.8621   22.7563  -19.8122 C   0  0  0  0  0  0  0  0  0  0  0  0
   19.7929   23.9569  -19.8111 C   0  0  0  0  0  0  0  0  0  0  0  0
   20.0599   24.4051  -21.2358 C   0  0  0  0  0  0  0  0  0  0  0  0
   20.9890   25.6052  -21.2381 C   0  0  0  0  0  0  0  0  0  0  0  0
   21.2516   26.0516  -22.6637 C   0  0  0  0  0  0  0  0  0  0  0  0
   22.1792   27.2516  -22.6699 C   0  0  0  0  0  0  0  0  0  0  0  0
   22.4412   27.6943  -24.0973 C   0  0  0  0  0  0  0  0  0  0  0  0
   23.3707   28.8932  -24.1039 C   0  0  0  0  0  0  0  0  0  0  0  0
   23.6316   29.3362  -25.5315 C   0  0  0  0  0  0  0  0  0  0  0  0
   24.5587   30.5369  -25.5381 C   0  0  0  0  0  0  0  0  0  0  0  0
   24.8186   30.9807  -26.9654 C   0  0  0  0  0  0  0  0  0  0  0  0
   25.7478   32.1798  -26.9714 C   0  0  0  0  0  0  0  0  0  0  0  0
   26.0079   32.6240  -28.3983 C   0  0  0  0  0  0  0  0  0  0  0  0
   26.9380   33.8224  -28.4035 C   0  0  0  0  0  0  0  0  0  0  0  0
   27.1983   34.2664  -29.8304 C   0  0  0  0  0  0  0  0  0  0  0  0
   28.1281   35.4647  -29.8359 C   0  0  0  0  0  0  0  0  0  0  0  0
   28.3886   35.9079  -31.2630 C   0  0  0  0  0  0  0  0  0  0  0  0
   29.3177   37.1068  -31.2685 C   0  0  0  0  0  0  0  0  0  0  0  0
   29.5791   37.5495  -32.6955 C   0  0  0  0  0  0  0  0  0  0  0  0
   30.5102   38.7468  -32.7007 C   0  0  0  0  0  0  0  0  0  0  0  0
   30.7711   39.1903  -34.1275 C   0  0  0  0  0  0  0  0  0  0  0  0
   31.7011   40.3885  -34.1325 C   0  0  0  0  0  0  0  0  0  0  0  0
   31.9621   40.8319  -35.5594 C   0  0  0  0  0  0  0  0  0  0  0  0
   32.8909   42.0310  -35.5646 C   0  0  0  0  0  0  0  0  0  0  0  0
   33.1518   42.4746  -36.9914 C   0  0  0  0  0  0  0  0  0  0  0  0
   34.0814   43.6731  -36.9969 C   0  0  0  0  0  0  0  0  0  0  0  0
   34.3438   44.1156  -38.4239 C   0  0  0  0  0  0  0  0  0  0  0  0
   35.2725   45.3151  -38.4296 C   0  0  0  0  0  0  0  0  0  0  0  0
   35.5362   45.7570  -39.8568 C   0  0  0  0  0  0  0  0  0  0  0  0
   36.4637   46.9576  -39.8625 C   0  0  0  0  0  0  0  0  0  0  0  0
   36.7265   47.4008  -41.2897 C   0  0  0  0  0  0  0  0  0  0  0  0
   37.6555   48.6008  -41.2960 C   0  0  0  0  0  0  0  0  0  0  0  0
   37.9175   49.0456  -42.7232 C   0  0  0  0  0  0  0  0  0  0  0  0
   38.8483   50.2450  -42.7307 C   0  0  0  0  0  0  0  0  0  0  0  0
   39.1093   50.6903  -44.1581 C   0  0  0  0  0  0  0  0  0  0  0  0
   40.0415   51.8895  -44.1686 C   0  0  0  0  0  0  0  0  0  0  0  0
   40.3016   52.3355  -45.5974 C   0  0  0  0  0  0  0  0  0  0  0  0
   41.2323   53.5366  -45.6103 C   0  0  0  0  0  0  0  0  0  0  0  0
   41.4949   53.9824  -47.0405 C   0  0  0  0  0  0  0  0  0  0  0  0
   42.4272   55.1831  -47.0548 C   0  0  0  0  0  0  0  0  0  0  0  0
   42.6965   55.6343  -48.4839 C   0  0  0  0  0  0  0  0  0  0  0  0
   43.6320   56.8343  -48.4870 C   0  0  0  0  0  0  0  0  0  0  0  0
   43.9158   57.3059  -49.9060 C   0  0  0  0  0  0  0  0  0  0  0  0
   44.8491   58.5050  -49.8881 C   0  0  0  0  0  0  0  0  0  0  0  0
   45.0498   58.9398  -51.2296 O   0  0  0  0  0  0  0  0  0  0  0  0
   45.9284   60.0571  -51.3006 C   0  0  0  0  0  0  0  0  0  0  0  0
   45.4052   61.2126  -50.6614 O   0  0  0  0  0  0  0  0  0  0  0  0
   -6.8135    4.5280  -21.2983 H   0  0  0  0  0  0  0  0  0  0  0  0
   -5.0908    4.8059  -21.5937 H   0  0  0  0  0  0  0  0  0  0  0  0
   -6.3088    5.6655  -22.5598 H   0  0  0  0  0  0  0  0  0  0  0  0
   -7.7416    5.8714  -19.3637 H   0  0  0  0  0  0  0  0  0  0  0  0
   -7.7052    8.3665  -18.5644 H   0  0  0  0  0  0  0  0  0  0  0  0
   -5.3605    9.2650  -19.3747 H   0  0  0  0  0  0  0  0  0  0  0  0
   -6.4529    9.3346  -20.7696 H   0  0  0  0  0  0  0  0  0  0  0  0
   -5.0796    7.7921  -21.8514 H   0  0  0  0  0  0  0  0  0  0  0  0
   -3.3677    6.3882  -20.6961 H   0  0  0  0  0  0  0  0  0  0  0  0
   -3.9595    6.8936  -19.1242 H   0  0  0  0  0  0  0  0  0  0  0  0
   -3.2976    9.2739  -19.6621 H   0  0  0  0  0  0  0  0  0  0  0  0
   -2.6984    8.7317  -21.2272 H   0  0  0  0  0  0  0  0  0  0  0  0
   -1.0638    7.2373  -20.0704 H   0  0  0  0  0  0  0  0  0  0  0  0
   -1.7232    7.7126  -18.5021 H   0  0  0  0  0  0  0  0  0  0  0  0
   -1.1172   10.0951  -18.9578 H   0  0  0  0  0  0  0  0  0  0  0  0
   -0.4558    9.6278  -20.5265 H   0  0  0  0  0  0  0  0  0  0  0  0
    1.1832    8.1187  -19.3787 H   0  0  0  0  0  0  0  0  0  0  0  0
    0.5219    8.5954  -17.8121 H   0  0  0  0  0  0  0  0  0  0  0  0
    1.1146   10.9811  -18.2847 H   0  0  0  0  0  0  0  0  0  0  0  0
    1.7699   10.5088  -19.8547 H   0  0  0  0  0  0  0  0  0  0  0  0
    3.4145    9.0038  -18.7144 H   0  0  0  0  0  0  0  0  0  0  0  0
    2.7611    9.4806  -17.1448 H   0  0  0  0  0  0  0  0  0  0  0  0
    3.3554   11.8658  -17.6218 H   0  0  0  0  0  0  0  0  0  0  0  0
    4.0077   11.3887  -19.1922 H   0  0  0  0  0  0  0  0  0  0  0  0
    5.6455    9.8765  -18.0529 H   0  0  0  0  0  0  0  0  0  0  0  0
    4.9937   10.3535  -16.4825 H   0  0  0  0  0  0  0  0  0  0  0  0
    5.5992   12.7363  -16.9551 H   0  0  0  0  0  0  0  0  0  0  0  0
    6.2506   12.2591  -18.5255 H   0  0  0  0  0  0  0  0  0  0  0  0
    7.8795   10.7383  -17.3841 H   0  0  0  0  0  0  0  0  0  0  0  0
    7.2283   11.2059  -15.8187 H   0  0  0  0  0  0  0  0  0  0  0  0
    7.8428   13.5960  -16.2895 H   0  0  0  0  0  0  0  0  0  0  0  0
    8.4914   13.1161  -17.8595 H   0  0  0  0  0  0  0  0  0  0  0  0
   10.1266   11.5976  -16.7182 H   0  0  0  0  0  0  0  0  0  0  0  0
    9.4771   12.0808  -15.1484 H   0  0  0  0  0  0  0  0  0  0  0  0
   10.0761   14.4595  -15.6309 H   0  0  0  0  0  0  0  0  0  0  0  0
   10.7243   13.9815  -17.2011 H   0  0  0  0  0  0  0  0  0  0  0  0
   12.3900   12.4845  -16.0522 H   0  0  0  0  0  0  0  0  0  0  0  0
   11.7421   12.9576  -14.4924 H   0  0  0  0  0  0  0  0  0  0  0  0
   12.2854   15.3444  -14.9848 H   0  0  0  0  0  0  0  0  0  0  0  0
   12.9878   14.8530  -16.5487 H   0  0  0  0  0  0  0  0  0  0  0  0
   15.0897   15.6139  -15.8821 H   0  0  0  0  0  0  0  0  0  0  0  0
   15.8180   14.9882  -14.3835 H   0  0  0  0  0  0  0  0  0  0  0  0
   16.0984   17.2650  -13.6170 H   0  0  0  0  0  0  0  0  0  0  0  0
   14.6417   18.2856  -13.5145 H   0  0  0  0  0  0  0  0  0  0  0  0
   17.1872   18.8125  -14.9695 H   0  0  0  0  0  0  0  0  0  0  0  0
   15.7901   19.9222  -14.8792 H   0  0  0  0  0  0  0  0  0  0  0  0
   15.5114   19.7210  -17.3669 H   0  0  0  0  0  0  0  0  0  0  0  0
   16.8894   18.6405  -17.4398 H   0  0  0  0  0  0  0  0  0  0  0  0
   18.3556   20.4294  -16.4567 H   0  0  0  0  0  0  0  0  0  0  0  0
   16.9700   21.5181  -16.3750 H   0  0  0  0  0  0  0  0  0  0  0  0
   16.7123   21.3681  -18.8641 H   0  0  0  0  0  0  0  0  0  0  0  0
   18.1037   20.2835  -18.9370 H   0  0  0  0  0  0  0  0  0  0  0  0
   19.5402   22.0502  -17.8941 H   0  0  0  0  0  0  0  0  0  0  0  0
   18.1483   23.1349  -17.8173 H   0  0  0  0  0  0  0  0  0  0  0  0
   17.9180   23.0169  -20.3057 H   0  0  0  0  0  0  0  0  0  0  0  0
   19.3116   21.9351  -20.3832 H   0  0  0  0  0  0  0  0  0  0  0  0
   20.7378   23.6973  -19.3176 H   0  0  0  0  0  0  0  0  0  0  0  0
   19.3433   24.7781  -19.2390 H   0  0  0  0  0  0  0  0  0  0  0  0
   19.1150   24.6643  -21.7290 H   0  0  0  0  0  0  0  0  0  0  0  0
   20.5099   23.5841  -21.8074 H   0  0  0  0  0  0  0  0  0  0  0  0
   21.9352   25.3470  -20.7467 H   0  0  0  0  0  0  0  0  0  0  0  0
   20.5402   26.4272  -20.6668 H   0  0  0  0  0  0  0  0  0  0  0  0
   20.3058   26.3072  -23.1567 H   0  0  0  0  0  0  0  0  0  0  0  0
   21.7021   25.2289  -23.2356 H   0  0  0  0  0  0  0  0  0  0  0  0
   23.1256   26.9957  -22.1779 H   0  0  0  0  0  0  0  0  0  0  0  0
   21.7290   28.0739  -22.1002 H   0  0  0  0  0  0  0  0  0  0  0  0
   21.4947   27.9524  -24.5882 H   0  0  0  0  0  0  0  0  0  0  0  0
   22.8887   26.8712  -24.6680 H   0  0  0  0  0  0  0  0  0  0  0  0
   24.3175   28.6351  -23.6139 H   0  0  0  0  0  0  0  0  0  0  0  0
   22.9234   29.7162  -23.5331 H   0  0  0  0  0  0  0  0  0  0  0  0
   22.6847   29.5924  -26.0225 H   0  0  0  0  0  0  0  0  0  0  0  0
   24.0808   28.5138  -26.1020 H   0  0  0  0  0  0  0  0  0  0  0  0
   25.5060   30.2805  -25.0479 H   0  0  0  0  0  0  0  0  0  0  0  0
   24.1099   31.3591  -24.9671 H   0  0  0  0  0  0  0  0  0  0  0  0
   23.8716   31.2391  -27.4550 H   0  0  0  0  0  0  0  0  0  0  0  0
   25.2659   30.1583  -27.5373 H   0  0  0  0  0  0  0  0  0  0  0  0
   26.6950   31.9213  -26.4819 H   0  0  0  0  0  0  0  0  0  0  0  0
   25.3008   33.0022  -26.3994 H   0  0  0  0  0  0  0  0  0  0  0  0
   25.0611   32.8834  -28.8878 H   0  0  0  0  0  0  0  0  0  0  0  0
   26.4546   31.8016  -28.9706 H   0  0  0  0  0  0  0  0  0  0  0  0
   27.8848   33.5632  -27.9140 H   0  0  0  0  0  0  0  0  0  0  0  0
   26.4914   34.6450  -27.8314 H   0  0  0  0  0  0  0  0  0  0  0  0
   26.2514   34.5256  -30.3201 H   0  0  0  0  0  0  0  0  0  0  0  0
   27.6450   33.4438  -30.4024 H   0  0  0  0  0  0  0  0  0  0  0  0
   29.0749   35.2059  -29.3460 H   0  0  0  0  0  0  0  0  0  0  0  0
   27.6813   36.2876  -29.2644 H   0  0  0  0  0  0  0  0  0  0  0  0
   27.4419   36.1661  -31.7534 H   0  0  0  0  0  0  0  0  0  0  0  0
   28.8362   35.0852  -31.8342 H   0  0  0  0  0  0  0  0  0  0  0  0
   30.2642   36.8487  -30.7777 H   0  0  0  0  0  0  0  0  0  0  0  0
   28.8698   37.9297  -30.6978 H   0  0  0  0  0  0  0  0  0  0  0  0
   28.6327   37.8094  -33.1858 H   0  0  0  0  0  0  0  0  0  0  0  0
   30.0253   36.7263  -33.2670 H   0  0  0  0  0  0  0  0  0  0  0  0
   31.4567   38.4867  -32.2109 H   0  0  0  0  0  0  0  0  0  0  0  0
   30.0643   39.5699  -32.1287 H   0  0  0  0  0  0  0  0  0  0  0  0
   29.8245   39.4495  -34.6176 H   0  0  0  0  0  0  0  0  0  0  0  0
   31.2179   38.3675  -34.6992 H   0  0  0  0  0  0  0  0  0  0  0  0
   32.6477   40.1294  -33.6423 H   0  0  0  0  0  0  0  0  0  0  0  0
   31.2541   41.2112  -33.5610 H   0  0  0  0  0  0  0  0  0  0  0  0
   31.0154   41.0899  -36.0499 H   0  0  0  0  0  0  0  0  0  0  0  0
   32.4100   40.0093  -36.1306 H   0  0  0  0  0  0  0  0  0  0  0  0
   33.8376   41.7729  -35.0740 H   0  0  0  0  0  0  0  0  0  0  0  0
   32.4431   42.8535  -34.9931 H   0  0  0  0  0  0  0  0  0  0  0  0
   32.2050   42.7333  -37.4816 H   0  0  0  0  0  0  0  0  0  0  0  0
   33.5989   41.6517  -37.5629 H   0  0  0  0  0  0  0  0  0  0  0  0
   35.0276   43.4147  -36.5054 H   0  0  0  0  0  0  0  0  0  0  0  0
   33.6336   44.4962  -36.4263 H   0  0  0  0  0  0  0  0  0  0  0  0
   33.3976   44.3729  -38.9156 H   0  0  0  0  0  0  0  0  0  0  0  0
   34.7924   43.2925  -38.9940 H   0  0  0  0  0  0  0  0  0  0  0  0
   36.2183   45.0580  -37.9367 H   0  0  0  0  0  0  0  0  0  0  0  0
   34.8231   46.1381  -37.8601 H   0  0  0  0  0  0  0  0  0  0  0  0
   34.5900   46.0127  -40.3495 H   0  0  0  0  0  0  0  0  0  0  0  0
   35.9862   44.9339  -40.4255 H   0  0  0  0  0  0  0  0  0  0  0  0
   37.4098   46.7011  -39.3702 H   0  0  0  0  0  0  0  0  0  0  0  0
   36.0138   47.7799  -39.2925 H   0  0  0  0  0  0  0  0  0  0  0  0
   35.7801   47.6580  -41.7811 H   0  0  0  0  0  0  0  0  0  0  0  0
   37.1750   46.5779  -41.8598 H   0  0  0  0  0  0  0  0  0  0  0  0
   38.6019   48.3427  -40.8051 H   0  0  0  0  0  0  0  0  0  0  0  0
   37.2072   49.4230  -40.7246 H   0  0  0  0  0  0  0  0  0  0  0  0
   36.9707   49.3045  -43.2131 H   0  0  0  0  0  0  0  0  0  0  0  0
   38.3640   48.2226  -43.2947 H   0  0  0  0  0  0  0  0  0  0  0  0
   39.7949   49.9853  -42.2408 H   0  0  0  0  0  0  0  0  0  0  0  0
   38.4017   51.0673  -42.1582 H   0  0  0  0  0  0  0  0  0  0  0  0
   38.1621   50.9497  -44.6468 H   0  0  0  0  0  0  0  0  0  0  0  0
   39.5545   49.8668  -44.7302 H   0  0  0  0  0  0  0  0  0  0  0  0
   40.9885   51.6291  -43.6802 H   0  0  0  0  0  0  0  0  0  0  0  0
   39.5965   52.7120  -43.5953 H   0  0  0  0  0  0  0  0  0  0  0  0
   39.3536   52.5930  -46.0856 H   0  0  0  0  0  0  0  0  0  0  0  0
   40.7472   51.5120  -46.1687 H   0  0  0  0  0  0  0  0  0  0  0  0
   42.1790   53.2781  -45.1199 H   0  0  0  0  0  0  0  0  0  0  0  0
   40.7854   54.3593  -45.0386 H   0  0  0  0  0  0  0  0  0  0  0  0
   40.5470   54.2402  -47.5286 H   0  0  0  0  0  0  0  0  0  0  0  0
   41.9399   53.1576  -47.6104 H   0  0  0  0  0  0  0  0  0  0  0  0
   43.3724   54.9236  -46.5624 H   0  0  0  0  0  0  0  0  0  0  0  0
   41.9799   56.0055  -46.4830 H   0  0  0  0  0  0  0  0  0  0  0  0
   41.7509   55.8964  -48.9744 H   0  0  0  0  0  0  0  0  0  0  0  0
   43.1421   54.8113  -49.0558 H   0  0  0  0  0  0  0  0  0  0  0  0
   44.5734   56.5690  -47.9902 H   0  0  0  0  0  0  0  0  0  0  0  0
   43.1820   57.6514  -47.9096 H   0  0  0  0  0  0  0  0  0  0  0  0
   42.9808   57.5722  -50.4147 H   0  0  0  0  0  0  0  0  0  0  0  0
   44.3629   56.4978  -50.4981 H   0  0  0  0  0  0  0  0  0  0  0  0
   45.8105   58.2303  -49.4390 H   0  0  0  0  0  0  0  0  0  0  0  0
   44.3995   59.3140  -49.3011 H   0  0  0  0  0  0  0  0  0  0  0  0
   46.1066   60.2898  -52.3548 H   0  0  0  0  0  0  0  0  0  0  0  0
   46.8914   59.8034  -50.8445 H   0  0  0  0  0  0  0  0  0  0  0  0
   44.7169   61.5728  -51.2455 H   0  0  0  0  0  0  0  0  0  0  0  0
  1  2  1  0  0  0  0
  1 80  1  0  0  0  0
  1 81  1  0  0  0  0
  1 82  1  0  0  0  0
  2  3  1  0  0  0  0
  2  6  1  0  0  0  0
  3  4  2  0  0  0  0
  3 83  1  0  0  0  0
  4  5  1  0  0  0  0
  4 84  1  0  0  0  0
  5  6  1  0  0  0  0
  5 85  1  0  0  0  0
  5 86  1  0  0  0  0
  6  7  1  0  0  0  0
  6 87  1  0  0  0  0
  7  8  1  0  0  0  0
  7 88  1  0  0  0  0
  7 89  1  0  0  0  0
  8  9  1  0  0  0  0
  8 90  1  0  0  0  0
  8 91  1  0  0  0  0
  9 10  1  0  0  0  0
  9 92  1  0  0  0  0
  9 93  1  0  0  0  0
 10 11  1  0  0  0  0
 10 94  1  0  0  0  0
 10 95  1  0  0  0  0
 11 12  1  0  0  0  0
 11 96  1  0  0  0  0
 11 97  1  0  0  0  0
 12 13  1  0  0  0  0
 12 98  1  0  0  0  0
 12 99  1  0  0  0  0
 13 14  1  0  0  0  0
 13100  1  0  0  0  0
 13101  1  0  0  0  0
 14 15  1  0  0  0  0
 14102  1  0  0  0  0
 14103  1  0  0  0  0
 15 16  1  0  0  0  0
 15104  1  0  0  0  0
 15105  1  0  0  0  0
 16 17  1  0  0  0  0
 16106  1  0  0  0  0
 16107  1  0  0  0  0
 17 18  1  0  0  0  0
 17108  1  0  0  0  0
 17109  1  0  0  0  0
 18 19  1  0  0  0  0
 18110  1  0  0  0  0
 18111  1  0  0  0  0
 19 20  1  0  0  0  0
 19112  1  0  0  0  0
 19113  1  0  0  0  0
 20 21  1  0  0  0  0
 20114  1  0  0  0  0
 20115  1  0  0  0  0
 21 22  1  0  0  0  0
 21116  1  0  0  0  0
 21117  1  0  0  0  0
 22 23  1  0  0  0  0
 22118  1  0  0  0  0
 22119  1  0  0  0  0
 23 24  1  0  0  0  0
 24 25  1  0  0  0  0
 24120  1  0  0  0  0
 24121  1  0  0  0  0
 25 26  1  0  0  0  0
 26 27  1  0  0  0  0
 26122  1  0  0  0  0
 26123  1  0  0  0  0
 27 28  1  0  0  0  0
 28 29  1  0  0  0  0
 28124  1  0  0  0  0
 28125  1  0  0  0  0
 29 30  1  0  0  0  0
 29126  1  0  0  0  0
 29127  1  0  0  0  0
 30 31  1  0  0  0  0
 30128  1  0  0  0  0
 30129  1  0  0  0  0
 31 32  1  0  0  0  0
 31130  1  0  0  0  0
 31131  1  0  0  0  0
 32 33  1  0  0  0  0
 32132  1  0  0  0  0
 32133  1  0  0  0  0
 33 34  1  0  0  0  0
 33134  1  0  0  0  0
 33135  1  0  0  0  0
 34 35  1  0  0  0  0
 34136  1  0  0  0  0
 34137  1  0  0  0  0
 35 36  1  0  0  0  0
 35138  1  0  0  0  0
 35139  1  0  0  0  0
 36 37  1  0  0  0  0
 36140  1  0  0  0  0
 36141  1  0  0  0  0
 37 38  1  0  0  0  0
 37142  1  0  0  0  0
 37143  1  0  0  0  0
 38 39  1  0  0  0  0
 38144  1  0  0  0  0
 38145  1  0  0  0  0
 39 40  1  0  0  0  0
 39146  1  0  0  0  0
 39147  1  0  0  0  0
 40 41  1  0  0  0  0
 40148  1  0  0  0  0
 40149  1  0  0  0  0
 41 42  1  0  0  0  0
 41150  1  0  0  0  0
 41151  1  0  0  0  0
 42 43  1  0  0  0  0
 42152  1  0  0  0  0
 42153  1  0  0  0  0
 43 44  1  0  0  0  0
 43154  1  0  0  0  0
 43155  1  0  0  0  0
 44 45  1  0  0  0  0
 44156  1  0  0  0  0
 44157  1  0  0  0  0
 45 46  1  0  0  0  0
 45158  1  0  0  0  0
 45159  1  0  0  0  0
 46 47  1  0  0  0  0
 46160  1  0  0  0  0
 46161  1  0  0  0  0
 47 48  1  0  0  0  0
 47162  1  0  0  0  0
 47163  1  0  0  0  0
 48 49  1  0  0  0  0
 48164  1  0  0  0  0
 48165  1  0  0  0  0
 49 50  1  0  0  0  0
 49166  1  0  0  0  0
 49167  1  0  0  0  0
 50 51  1  0  0  0  0
 50168  1  0  0  0  0
 50169  1  0  0  0  0
 51 52  1  0  0  0  0
 51170  1  0  0  0  0
 51171  1  0  0  0  0
 52 53  1  0  0  0  0
 52172  1  0  0  0  0
 52173  1  0  0  0  0
 53 54  1  0  0  0  0
 53174  1  0  0  0  0
 53175  1  0  0  0  0
 54 55  1  0  0  0  0
 54176  1  0  0  0  0
 54177  1  0  0  0  0
 55 56  1  0  0  0  0
 55178  1  0  0  0  0
 55179  1  0  0  0  0
 56 57  1  0  0  0  0
 56180  1  0  0  0  0
 56181  1  0  0  0  0
 57 58  1  0  0  0  0
 57182  1  0  0  0  0
 57183  1  0  0  0  0
 58 59  1  0  0  0  0
 58184  1  0  0  0  0
 58185  1  0  0  0  0
 59 60  1  0  0  0  0
 59186  1  0  0  0  0
 59187  1  0  0  0  0
 60 61  1  0  0  0  0
 60188  1  0  0  0  0
 60189  1  0  0  0  0
 61 62  1  0  0  0  0
 61190  1  0  0  0  0
 61191  1  0  0  0  0
 62 63  1  0  0  0  0
 62192  1  0  0  0  0
 62193  1  0  0  0  0
 63 64  1  0  0  0  0
 63194  1  0  0  0  0
 63195  1  0  0  0  0
 64 65  1  0  0  0  0
 64196  1  0  0  0  0
 64197  1  0  0  0  0
 65 66  1  0  0  0  0
 65198  1  0  0  0  0
 65199  1  0  0  0  0
 66 67  1  0  0  0  0
 66200  1  0  0  0  0
 66201  1  0  0  0  0
 67 68  1  0  0  0  0
 67202  1  0  0  0  0
 67203  1  0  0  0  0
 68 69  1  0  0  0  0
 68204  1  0  0  0  0
 68205  1  0  0  0  0
 69 70  1  0  0  0  0
 69206  1  0  0  0  0
 69207  1  0  0  0  0
 70 71  1  0  0  0  0
 70208  1  0  0  0  0
 70209  1  0  0  0  0
 71 72  1  0  0  0  0
 71210  1  0  0  0  0
 71211  1  0  0  0  0
 72 73  1  0  0  0  0
 72212  1  0  0  0  0
 72213  1  0  0  0  0
 73 74  1  0  0  0  0
 73214  1  0  0  0  0
 73215  1  0  0  0  0
 74 75  1  0  0  0  0
 74216  1  0  0  0  0
 74217  1  0  0  0  0
 75 76  1  0  0  0  0
 75218  1  0  0  0  0
 75219  1  0  0  0  0
 76 77  1  0  0  0  0
 76220  1  0  0  0  0
 76221  1  0  0  0  0
 77 78  1  0  0  0  0
 78 79  1  0  0  0  0
 78222  1  0  0  0  0
 78223  1  0  0  0  0
 79224  1  0  0  0  0
M  END
$$$$
