
 OpenBabel04232216413D

211210  0  0  0  0  0  0  0  0999 V2000
   16.8501   -7.1272  -21.1464 C   0  0  0  0  0  0  0  0  0  0  0  0
   17.7954   -7.6811  -20.3628 C   0  0  0  0  0  0  0  0  0  0  0  0
   18.0586   -7.2414  -18.9549 C   0  0  0  0  0  0  0  0  0  0  0  0
   19.4549   -6.8020  -18.7888 N   0  0  0  0  0  0  0  0  0  0  0  0
   19.6092   -6.3804  -17.4807 N   0  0  0  0  0  0  0  0  0  0  0  0
   20.9305   -5.9326  -17.3207 N   0  0  0  0  0  0  0  0  0  0  0  0
   21.1857   -5.5186  -15.9870 N   0  0  0  0  0  0  0  0  0  0  0  0
   20.9472   -6.5912  -15.0736 N   0  0  0  0  0  0  0  0  0  0  0  0
   21.8425   -7.7058  -15.3493 N   0  0  0  0  0  0  0  0  0  0  0  0
   23.2085   -7.2886  -15.2587 N   0  0  0  0  0  0  0  0  0  0  0  0
   23.4695   -6.8387  -13.9345 N   0  0  0  0  0  0  0  0  0  0  0  0
   23.1871   -7.8854  -13.0097 N   0  0  0  0  0  0  0  0  0  0  0  0
   24.0349   -9.0203  -13.2870 N   0  0  0  0  0  0  0  0  0  0  0  0
   25.3905   -8.6117  -13.2469 N   0  0  0  0  0  0  0  0  0  0  0  0
   25.6766   -8.1407  -11.9143 N   0  0  0  0  0  0  0  0  0  0  0  0
   25.4002   -9.1832  -10.9590 N   0  0  0  0  0  0  0  0  0  0  0  0
   26.2091  -10.3335  -11.2250 N   0  0  0  0  0  0  0  0  0  0  0  0
   27.5740   -9.9398  -11.1759 N   0  0  0  0  0  0  0  0  0  0  0  0
   27.8583   -9.4251   -9.8415 N   0  0  0  0  0  0  0  0  0  0  0  0
   27.5739  -10.4502   -8.8513 N   0  0  0  0  0  0  0  0  0  0  0  0
   28.3775  -11.6114   -9.1050 N   0  0  0  0  0  0  0  0  0  0  0  0
   29.7890  -11.2812   -9.0179 N   0  0  0  0  0  0  0  0  0  0  0  0
   30.0710  -10.7257   -7.7454 N   0  0  0  0  0  0  0  0  0  0  0  0
   29.7853  -11.7077   -6.7311 N   0  0  0  0  0  0  0  0  0  0  0  0
   30.5497  -12.8969   -6.9739 N   0  0  0  0  0  0  0  0  0  0  0  0
   31.9312  -12.5724   -6.9405 N   0  0  0  0  0  0  0  0  0  0  0  0
   32.2815  -12.0260   -5.6623 N   0  0  0  0  0  0  0  0  0  0  0  0
   31.9690  -12.9744   -4.6513 N   0  0  0  0  0  0  0  0  0  0  0  0
   32.6984  -14.1864   -4.8679 N   0  0  0  0  0  0  0  0  0  0  0  0
   34.1082  -13.9166   -4.8333 N   0  0  0  0  0  0  0  0  0  0  0  0
   34.4608  -13.3370   -3.5494 N   0  0  0  0  0  0  0  0  0  0  0  0
   34.1304  -14.3302   -2.5011 C   0  0  0  0  0  0  0  0  0  0  0  0
   34.8635  -15.5851   -2.7038 N   0  0  0  0  0  0  0  0  0  0  0  0
   36.2974  -15.3050   -2.6847 C   0  0  0  0  0  0  0  0  0  0  0  0
   37.0499  -16.5912   -2.9207 C   0  0  0  0  0  0  0  0  0  0  0  0
   38.5422  -16.3188   -2.8807 C   0  0  0  0  0  0  0  0  0  0  0  0
   39.3077  -17.6077   -3.1051 C   0  0  0  0  0  0  0  0  0  0  0  0
   40.7994  -17.3405   -3.0618 C   0  0  0  0  0  0  0  0  0  0  0  0
   41.5631  -18.6302   -3.2882 C   0  0  0  0  0  0  0  0  0  0  0  0
   43.0544  -18.3633   -3.2430 C   0  0  0  0  0  0  0  0  0  0  0  0
   43.8177  -19.6526   -3.4714 C   0  0  0  0  0  0  0  0  0  0  0  0
   45.3089  -19.3860   -3.4242 C   0  0  0  0  0  0  0  0  0  0  0  0
   46.0721  -20.6753   -3.6526 C   0  0  0  0  0  0  0  0  0  0  0  0
   47.5633  -20.4087   -3.6053 C   0  0  0  0  0  0  0  0  0  0  0  0
   48.3265  -21.6980   -3.8338 C   0  0  0  0  0  0  0  0  0  0  0  0
   49.8177  -21.4314   -3.7865 C   0  0  0  0  0  0  0  0  0  0  0  0
   50.5809  -22.7207   -4.0150 C   0  0  0  0  0  0  0  0  0  0  0  0
   52.0721  -22.4544   -3.9657 C   0  0  0  0  0  0  0  0  0  0  0  0
   52.8353  -23.7441   -4.1922 C   0  0  0  0  0  0  0  0  0  0  0  0
   54.3265  -23.4781   -4.1410 C   0  0  0  0  0  0  0  0  0  0  0  0
   55.0897  -24.7678   -4.3674 C   0  0  0  0  0  0  0  0  0  0  0  0
   56.5809  -24.5015   -4.3182 C   0  0  0  0  0  0  0  0  0  0  0  0
   57.3441  -25.7908   -4.5466 C   0  0  0  0  0  0  0  0  0  0  0  0
   58.8353  -25.5249   -4.4954 C   0  0  0  0  0  0  0  0  0  0  0  0
   59.5985  -26.8139   -4.7258 C   0  0  0  0  0  0  0  0  0  0  0  0
   61.0897  -26.5483   -4.6726 C   0  0  0  0  0  0  0  0  0  0  0  0
   61.8529  -27.8369   -4.9050 C   0  0  0  0  0  0  0  0  0  0  0  0
   63.3441  -27.5713   -4.8518 C   0  0  0  0  0  0  0  0  0  0  0  0
   64.1073  -28.8595   -5.0862 C   0  0  0  0  0  0  0  0  0  0  0  0
   65.5985  -28.5940   -5.0330 C   0  0  0  0  0  0  0  0  0  0  0  0
   66.3618  -29.8822   -5.2673 C   0  0  0  0  0  0  0  0  0  0  0  0
   67.8529  -29.6167   -5.2142 C   0  0  0  0  0  0  0  0  0  0  0  0
   68.6162  -30.9049   -5.4485 C   0  0  0  0  0  0  0  0  0  0  0  0
   70.1073  -30.6393   -5.3953 C   0  0  0  0  0  0  0  0  0  0  0  0
   70.8706  -31.9275   -5.6297 C   0  0  0  0  0  0  0  0  0  0  0  0
   72.3618  -31.6620   -5.5765 C   0  0  0  0  0  0  0  0  0  0  0  0
   73.1250  -32.9502   -5.8109 C   0  0  0  0  0  0  0  0  0  0  0  0
   74.6162  -32.6846   -5.7577 C   0  0  0  0  0  0  0  0  0  0  0  0
   75.3794  -33.9732   -5.9901 C   0  0  0  0  0  0  0  0  0  0  0  0
   76.8706  -33.7077   -5.9369 C   0  0  0  0  0  0  0  0  0  0  0  0
   77.6338  -34.9963   -6.1693 C   0  0  0  0  0  0  0  0  0  0  0  0
   79.1250  -34.7307   -6.1161 C   0  0  0  0  0  0  0  0  0  0  0  0
   79.8882  -36.0193   -6.3485 C   0  0  0  0  0  0  0  0  0  0  0  0
   81.3794  -35.7537   -6.2953 C   0  0  0  0  0  0  0  0  0  0  0  0
   82.1426  -37.0427   -6.5257 C   0  0  0  0  0  0  0  0  0  0  0  0
   83.6339  -36.7773   -6.4725 C   0  0  0  0  0  0  0  0  0  0  0  0
   84.3972  -38.0667   -6.7030 C   0  0  0  0  0  0  0  0  0  0  0  0
   85.8893  -37.8028   -6.6481 C   0  0  0  0  0  0  0  0  0  0  0  0
   86.6570  -39.0926   -6.8766 C   0  0  0  0  0  0  0  0  0  0  0  0
   88.1449  -38.8249   -6.8210 C   0  0  0  0  0  0  0  0  0  0  0  0
   16.6754   -7.4618  -22.1638 H   0  0  0  0  0  0  0  0  0  0  0  0
   16.2617   -6.3018  -20.7629 H   0  0  0  0  0  0  0  0  0  0  0  0
   18.3812   -8.5092  -20.7511 H   0  0  0  0  0  0  0  0  0  0  0  0
   17.8457   -8.0879  -18.2865 H   0  0  0  0  0  0  0  0  0  0  0  0
   17.3605   -6.4323  -18.6986 H   0  0  0  0  0  0  0  0  0  0  0  0
   19.6034   -6.0154  -19.4153 H   0  0  0  0  0  0  0  0  0  0  0  0
   19.3916   -7.1956  -16.9164 H   0  0  0  0  0  0  0  0  0  0  0  0
   21.1116   -5.1721  -17.9586 H   0  0  0  0  0  0  0  0  0  0  0  0
   20.5576   -4.7603  -15.7481 H   0  0  0  0  0  0  0  0  0  0  0  0
   19.9548   -6.8553  -15.1431 H   0  0  0  0  0  0  0  0  0  0  0  0
   21.6786   -8.0376  -16.3066 H   0  0  0  0  0  0  0  0  0  0  0  0
   23.4015   -6.5209  -15.8991 H   0  0  0  0  0  0  0  0  0  0  0  0
   22.8482   -6.0672  -13.7271 H   0  0  0  0  0  0  0  0  0  0  0  0
   22.2210   -8.1785  -13.1148 H   0  0  0  0  0  0  0  0  0  0  0  0
   23.8250   -9.3256  -14.2398 H   0  0  0  0  0  0  0  0  0  0  0  0
   25.5468   -7.8709  -13.9463 H   0  0  0  0  0  0  0  0  0  0  0  0
   25.0570   -7.3576  -11.7017 H   0  0  0  0  0  0  0  0  0  0  0  0
   24.4185   -9.4579  -11.0417 H   0  0  0  0  0  0  0  0  0  0  0  0
   25.9920  -10.6590  -12.1681 H   0  0  0  0  0  0  0  0  0  0  0  0
   27.7324   -9.2120  -11.8858 H   0  0  0  0  0  0  0  0  0  0  0  0
   27.2468   -8.6012   -9.6858 H   0  0  0  0  0  0  0  0  0  0  0  0
   26.5841  -10.7239   -8.8940 H   0  0  0  0  0  0  0  0  0  0  0  0
   28.1953  -11.9989  -10.0292 H   0  0  0  0  0  0  0  0  0  0  0  0
   29.9857  -10.5741   -9.7234 H   0  0  0  0  0  0  0  0  0  0  0  0
   29.5040   -9.9084   -7.5663 H   0  0  0  0  0  0  0  0  0  0  0  0
   28.8025  -11.9602   -6.7916 H   0  0  0  0  0  0  0  0  0  0  0  0
   30.3224  -13.2405   -7.9078 H   0  0  0  0  0  0  0  0  0  0  0  0
   32.1329  -11.8762   -7.6560 H   0  0  0  0  0  0  0  0  0  0  0  0
   31.7171  -11.1874   -5.5162 H   0  0  0  0  0  0  0  0  0  0  0  0
   30.9701  -13.1851   -4.6991 H   0  0  0  0  0  0  0  0  0  0  0  0
   32.4489  -14.5671   -5.7839 H   0  0  0  0  0  0  0  0  0  0  0  0
   34.2937  -13.2304   -5.5721 H   0  0  0  0  0  0  0  0  0  0  0  0
   33.8815  -12.4989   -3.4347 H   0  0  0  0  0  0  0  0  0  0  0  0
   33.0481  -14.5326   -2.5126 H   0  0  0  0  0  0  0  0  0  0  0  0
   34.3469  -13.9009   -1.5189 H   0  0  0  0  0  0  0  0  0  0  0  0
   34.5967  -15.9276   -3.6308 H   0  0  0  0  0  0  0  0  0  0  0  0
   36.5664  -14.8746   -1.7140 H   0  0  0  0  0  0  0  0  0  0  0  0
   36.5714  -14.5803   -3.4652 H   0  0  0  0  0  0  0  0  0  0  0  0
   36.7786  -17.0138   -3.8955 H   0  0  0  0  0  0  0  0  0  0  0  0
   36.7842  -17.3186   -2.1480 H   0  0  0  0  0  0  0  0  0  0  0  0
   38.8171  -15.8898   -1.9093 H   0  0  0  0  0  0  0  0  0  0  0  0
   38.8114  -15.5895   -3.6548 H   0  0  0  0  0  0  0  0  0  0  0  0
   39.0363  -18.0357   -4.0775 H   0  0  0  0  0  0  0  0  0  0  0  0
   39.0398  -18.3375   -2.3316 H   0  0  0  0  0  0  0  0  0  0  0  0
   41.0722  -16.9142   -2.0889 H   0  0  0  0  0  0  0  0  0  0  0  0
   41.0684  -16.6101   -3.8343 H   0  0  0  0  0  0  0  0  0  0  0  0
   41.2919  -19.0559   -4.2618 H   0  0  0  0  0  0  0  0  0  0  0  0
   41.2936  -19.3614   -2.5166 H   0  0  0  0  0  0  0  0  0  0  0  0
   43.3260  -17.9390   -2.2689 H   0  0  0  0  0  0  0  0  0  0  0  0
   43.3239  -17.6312   -4.0137 H   0  0  0  0  0  0  0  0  0  0  0  0
   43.5472  -20.0762   -4.4461 H   0  0  0  0  0  0  0  0  0  0  0  0
   43.5472  -20.3853   -2.7015 H   0  0  0  0  0  0  0  0  0  0  0  0
   45.5794  -18.9625   -2.4495 H   0  0  0  0  0  0  0  0  0  0  0  0
   45.5793  -18.6534   -4.1941 H   0  0  0  0  0  0  0  0  0  0  0  0
   45.8016  -21.0989   -4.6273 H   0  0  0  0  0  0  0  0  0  0  0  0
   45.8016  -21.4080   -2.8827 H   0  0  0  0  0  0  0  0  0  0  0  0
   47.8338  -19.9851   -2.6306 H   0  0  0  0  0  0  0  0  0  0  0  0
   47.8338  -19.6761   -4.3752 H   0  0  0  0  0  0  0  0  0  0  0  0
   48.0560  -22.1216   -4.8085 H   0  0  0  0  0  0  0  0  0  0  0  0
   48.0560  -22.4306   -3.0639 H   0  0  0  0  0  0  0  0  0  0  0  0
   50.0881  -21.0078   -2.8118 H   0  0  0  0  0  0  0  0  0  0  0  0
   50.0882  -20.6987   -4.5564 H   0  0  0  0  0  0  0  0  0  0  0  0
   50.3115  -23.1435   -4.9903 H   0  0  0  0  0  0  0  0  0  0  0  0
   50.3093  -23.4538   -3.2459 H   0  0  0  0  0  0  0  0  0  0  0  0
   52.3413  -22.0303   -2.9909 H   0  0  0  0  0  0  0  0  0  0  0  0
   52.3439  -21.7223   -4.7357 H   0  0  0  0  0  0  0  0  0  0  0  0
   52.5672  -24.1675   -5.1676 H   0  0  0  0  0  0  0  0  0  0  0  0
   52.5625  -24.4766   -3.4230 H   0  0  0  0  0  0  0  0  0  0  0  0
   54.5946  -23.0547   -3.1655 H   0  0  0  0  0  0  0  0  0  0  0  0
   54.5993  -22.7456   -4.9101 H   0  0  0  0  0  0  0  0  0  0  0  0
   54.8205  -25.1919   -5.3422 H   0  0  0  0  0  0  0  0  0  0  0  0
   54.8179  -25.4999   -3.5974 H   0  0  0  0  0  0  0  0  0  0  0  0
   56.8503  -24.0787   -3.3428 H   0  0  0  0  0  0  0  0  0  0  0  0
   56.8525  -23.7684   -5.0872 H   0  0  0  0  0  0  0  0  0  0  0  0
   57.0758  -26.2129   -5.5226 H   0  0  0  0  0  0  0  0  0  0  0  0
   57.0715  -26.5245   -3.7784 H   0  0  0  0  0  0  0  0  0  0  0  0
   59.1038  -25.1042   -3.5189 H   0  0  0  0  0  0  0  0  0  0  0  0
   59.1077  -24.7902   -5.2626 H   0  0  0  0  0  0  0  0  0  0  0  0
   59.3310  -27.2338   -5.7029 H   0  0  0  0  0  0  0  0  0  0  0  0
   59.3251  -27.5491   -3.9594 H   0  0  0  0  0  0  0  0  0  0  0  0
   61.3574  -26.1297   -3.6950 H   0  0  0  0  0  0  0  0  0  0  0  0
   61.3630  -25.8120   -5.4380 H   0  0  0  0  0  0  0  0  0  0  0  0
   61.5852  -28.2555   -5.8826 H   0  0  0  0  0  0  0  0  0  0  0  0
   61.5797  -28.5732   -4.1396 H   0  0  0  0  0  0  0  0  0  0  0  0
   63.6120  -27.1540   -3.8737 H   0  0  0  0  0  0  0  0  0  0  0  0
   63.6172  -26.8340   -5.6163 H   0  0  0  0  0  0  0  0  0  0  0  0
   63.8395  -29.2768   -6.0643 H   0  0  0  0  0  0  0  0  0  0  0  0
   63.8343  -29.5969   -4.3217 H   0  0  0  0  0  0  0  0  0  0  0  0
   65.8664  -28.1767   -4.0548 H   0  0  0  0  0  0  0  0  0  0  0  0
   65.8716  -27.8566   -5.7974 H   0  0  0  0  0  0  0  0  0  0  0  0
   66.0939  -30.2995   -6.2455 H   0  0  0  0  0  0  0  0  0  0  0  0
   66.0887  -30.6196   -4.5029 H   0  0  0  0  0  0  0  0  0  0  0  0
   68.1208  -29.1994   -4.2360 H   0  0  0  0  0  0  0  0  0  0  0  0
   68.1260  -28.8793   -5.9786 H   0  0  0  0  0  0  0  0  0  0  0  0
   68.3483  -31.3221   -6.4267 H   0  0  0  0  0  0  0  0  0  0  0  0
   68.3431  -31.6422   -4.6841 H   0  0  0  0  0  0  0  0  0  0  0  0
   70.3752  -30.2220   -4.4172 H   0  0  0  0  0  0  0  0  0  0  0  0
   70.3804  -29.9020   -6.1598 H   0  0  0  0  0  0  0  0  0  0  0  0
   70.6027  -32.3448   -6.6078 H   0  0  0  0  0  0  0  0  0  0  0  0
   70.5975  -32.6649   -4.8652 H   0  0  0  0  0  0  0  0  0  0  0  0
   72.6296  -31.2447   -4.5984 H   0  0  0  0  0  0  0  0  0  0  0  0
   72.6348  -30.9246   -6.3410 H   0  0  0  0  0  0  0  0  0  0  0  0
   72.8571  -33.3675   -6.7890 H   0  0  0  0  0  0  0  0  0  0  0  0
   72.8519  -33.6875   -5.0464 H   0  0  0  0  0  0  0  0  0  0  0  0
   74.8839  -32.2660   -4.7801 H   0  0  0  0  0  0  0  0  0  0  0  0
   74.8894  -31.9484   -6.5231 H   0  0  0  0  0  0  0  0  0  0  0  0
   75.1117  -34.3918   -6.9677 H   0  0  0  0  0  0  0  0  0  0  0  0
   75.1061  -34.7095   -5.2247 H   0  0  0  0  0  0  0  0  0  0  0  0
   77.1383  -33.2891   -4.9593 H   0  0  0  0  0  0  0  0  0  0  0  0
   77.1439  -32.9714   -6.7023 H   0  0  0  0  0  0  0  0  0  0  0  0
   77.3661  -35.4149   -7.1469 H   0  0  0  0  0  0  0  0  0  0  0  0
   77.3605  -35.7325   -5.4039 H   0  0  0  0  0  0  0  0  0  0  0  0
   79.3927  -34.3121   -5.1385 H   0  0  0  0  0  0  0  0  0  0  0  0
   79.3983  -33.9944   -6.8815 H   0  0  0  0  0  0  0  0  0  0  0  0
   79.6206  -36.4379   -7.3261 H   0  0  0  0  0  0  0  0  0  0  0  0
   79.6149  -36.7555   -5.5830 H   0  0  0  0  0  0  0  0  0  0  0  0
   81.6469  -35.3338   -5.3182 H   0  0  0  0  0  0  0  0  0  0  0  0
   81.6529  -35.0185   -7.0616 H   0  0  0  0  0  0  0  0  0  0  0  0
   81.8751  -37.4626   -7.5028 H   0  0  0  0  0  0  0  0  0  0  0  0
   81.8691  -37.7779   -5.7593 H   0  0  0  0  0  0  0  0  0  0  0  0
   83.9012  -36.3572   -5.4954 H   0  0  0  0  0  0  0  0  0  0  0  0
   83.9074  -36.0420   -7.2389 H   0  0  0  0  0  0  0  0  0  0  0  0
   84.1305  -38.4855   -7.6807 H   0  0  0  0  0  0  0  0  0  0  0  0
   84.1223  -38.8020   -5.9373 H   0  0  0  0  0  0  0  0  0  0  0  0
   86.1542  -37.3809   -5.6709 H   0  0  0  0  0  0  0  0  0  0  0  0
   86.1628  -37.0669   -7.4141 H   0  0  0  0  0  0  0  0  0  0  0  0
   86.3944  -39.5131   -7.8539 H   0  0  0  0  0  0  0  0  0  0  0  0
   86.3857  -39.8272   -6.1099 H   0  0  0  0  0  0  0  0  0  0  0  0
   88.4313  -38.1029   -7.5923 H   0  0  0  0  0  0  0  0  0  0  0  0
   88.6996  -39.7512   -6.9851 H   0  0  0  0  0  0  0  0  0  0  0  0
   88.4227  -38.4179   -5.8435 H   0  0  0  0  0  0  0  0  0  0  0  0
  1  2  2  0  0  0  0
  1 81  1  0  0  0  0
  1 82  1  0  0  0  0
  2  3  1  0  0  0  0
  2 83  1  0  0  0  0
  3  4  1  0  0  0  0
  3 84  1  0  0  0  0
  3 85  1  0  0  0  0
  4  5  1  0  0  0  0
  4 86  1  0  0  0  0
  5  6  1  0  0  0  0
  5 87  1  0  0  0  0
  6  7  1  0  0  0  0
  6 88  1  0  0  0  0
  7  8  1  0  0  0  0
  7 89  1  0  0  0  0
  8  9  1  0  0  0  0
  8 90  1  0  0  0  0
  9 10  1  0  0  0  0
  9 91  1  0  0  0  0
 10 11  1  0  0  0  0
 10 92  1  0  0  0  0
 11 12  1  0  0  0  0
 11 93  1  0  0  0  0
 12 13  1  0  0  0  0
 12 94  1  0  0  0  0
 13 14  1  0  0  0  0
 13 95  1  0  0  0  0
 14 15  1  0  0  0  0
 14 96  1  0  0  0  0
 15 16  1  0  0  0  0
 15 97  1  0  0  0  0
 16 17  1  0  0  0  0
 16 98  1  0  0  0  0
 17 18  1  0  0  0  0
 17 99  1  0  0  0  0
 18 19  1  0  0  0  0
 18100  1  0  0  0  0
 19 20  1  0  0  0  0
 19101  1  0  0  0  0
 20 21  1  0  0  0  0
 20102  1  0  0  0  0
 21 22  1  0  0  0  0
 21103  1  0  0  0  0
 22 23  1  0  0  0  0
 22104  1  0  0  0  0
 23 24  1  0  0  0  0
 23105  1  0  0  0  0
 24 25  1  0  0  0  0
 24106  1  0  0  0  0
 25 26  1  0  0  0  0
 25107  1  0  0  0  0
 26 27  1  0  0  0  0
 26108  1  0  0  0  0
 27 28  1  0  0  0  0
 27109  1  0  0  0  0
 28 29  1  0  0  0  0
 28110  1  0  0  0  0
 29 30  1  0  0  0  0
 29111  1  0  0  0  0
 30 31  1  0  0  0  0
 30112  1  0  0  0  0
 31 32  1  0  0  0  0
 31113  1  0  0  0  0
 32 33  1  0  0  0  0
 32114  1  0  0  0  0
 32115  1  0  0  0  0
 33 34  1  0  0  0  0
 33116  1  0  0  0  0
 34 35  1  0  0  0  0
 34117  1  0  0  0  0
 34118  1  0  0  0  0
 35 36  1  0  0  0  0
 35119  1  0  0  0  0
 35120  1  0  0  0  0
 36 37  1  0  0  0  0
 36121  1  0  0  0  0
 36122  1  0  0  0  0
 37 38  1  0  0  0  0
 37123  1  0  0  0  0
 37124  1  0  0  0  0
 38 39  1  0  0  0  0
 38125  1  0  0  0  0
 38126  1  0  0  0  0
 39 40  1  0  0  0  0
 39127  1  0  0  0  0
 39128  1  0  0  0  0
 40 41  1  0  0  0  0
 40129  1  0  0  0  0
 40130  1  0  0  0  0
 41 42  1  0  0  0  0
 41131  1  0  0  0  0
 41132  1  0  0  0  0
 42 43  1  0  0  0  0
 42133  1  0  0  0  0
 42134  1  0  0  0  0
 43 44  1  0  0  0  0
 43135  1  0  0  0  0
 43136  1  0  0  0  0
 44 45  1  0  0  0  0
 44137  1  0  0  0  0
 44138  1  0  0  0  0
 45 46  1  0  0  0  0
 45139  1  0  0  0  0
 45140  1  0  0  0  0
 46 47  1  0  0  0  0
 46141  1  0  0  0  0
 46142  1  0  0  0  0
 47 48  1  0  0  0  0
 47143  1  0  0  0  0
 47144  1  0  0  0  0
 48 49  1  0  0  0  0
 48145  1  0  0  0  0
 48146  1  0  0  0  0
 49 50  1  0  0  0  0
 49147  1  0  0  0  0
 49148  1  0  0  0  0
 50 51  1  0  0  0  0
 50149  1  0  0  0  0
 50150  1  0  0  0  0
 51 52  1  0  0  0  0
 51151  1  0  0  0  0
 51152  1  0  0  0  0
 52 53  1  0  0  0  0
 52153  1  0  0  0  0
 52154  1  0  0  0  0
 53 54  1  0  0  0  0
 53155  1  0  0  0  0
 53156  1  0  0  0  0
 54 55  1  0  0  0  0
 54157  1  0  0  0  0
 54158  1  0  0  0  0
 55 56  1  0  0  0  0
 55159  1  0  0  0  0
 55160  1  0  0  0  0
 56 57  1  0  0  0  0
 56161  1  0  0  0  0
 56162  1  0  0  0  0
 57 58  1  0  0  0  0
 57163  1  0  0  0  0
 57164  1  0  0  0  0
 58 59  1  0  0  0  0
 58165  1  0  0  0  0
 58166  1  0  0  0  0
 59 60  1  0  0  0  0
 59167  1  0  0  0  0
 59168  1  0  0  0  0
 60 61  1  0  0  0  0
 60169  1  0  0  0  0
 60170  1  0  0  0  0
 61 62  1  0  0  0  0
 61171  1  0  0  0  0
 61172  1  0  0  0  0
 62 63  1  0  0  0  0
 62173  1  0  0  0  0
 62174  1  0  0  0  0
 63 64  1  0  0  0  0
 63175  1  0  0  0  0
 63176  1  0  0  0  0
 64 65  1  0  0  0  0
 64177  1  0  0  0  0
 64178  1  0  0  0  0
 65 66  1  0  0  0  0
 65179  1  0  0  0  0
 65180  1  0  0  0  0
 66 67  1  0  0  0  0
 66181  1  0  0  0  0
 66182  1  0  0  0  0
 67 68  1  0  0  0  0
 67183  1  0  0  0  0
 67184  1  0  0  0  0
 68 69  1  0  0  0  0
 68185  1  0  0  0  0
 68186  1  0  0  0  0
 69 70  1  0  0  0  0
 69187  1  0  0  0  0
 69188  1  0  0  0  0
 70 71  1  0  0  0  0
 70189  1  0  0  0  0
 70190  1  0  0  0  0
 71 72  1  0  0  0  0
 71191  1  0  0  0  0
 71192  1  0  0  0  0
 72 73  1  0  0  0  0
 72193  1  0  0  0  0
 72194  1  0  0  0  0
 73 74  1  0  0  0  0
 73195  1  0  0  0  0
 73196  1  0  0  0  0
 74 75  1  0  0  0  0
 74197  1  0  0  0  0
 74198  1  0  0  0  0
 75 76  1  0  0  0  0
 75199  1  0  0  0  0
 75200  1  0  0  0  0
 76 77  1  0  0  0  0
 76201  1  0  0  0  0
 76202  1  0  0  0  0
 77 78  1  0  0  0  0
 77203  1  0  0  0  0
 77204  1  0  0  0  0
 78 79  1  0  0  0  0
 78205  1  0  0  0  0
 78206  1  0  0  0  0
 79 80  1  0  0  0  0
 79207  1  0  0  0  0
 79208  1  0  0  0  0
 80209  1  0  0  0  0
 80210  1  0  0  0  0
 80211  1  0  0  0  0
M  END
$$$$
