
 OpenBabel04232216483D

 51 52  0  0  0  0  0  0  0  0999 V2000
    4.5599   -3.1942   -1.6467 C   0  0  0  0  0  0  0  0  0  0  0  0
    5.8383   -2.6841   -1.0382 C   0  0  0  0  0  0  0  0  0  0  0  0
    5.1927   -1.5862   -0.0998 C   0  0  0  0  0  3  0  0  0  0  0  0
    5.7118   -0.1913   -0.0167 C   0  0  0  0  0  0  0  0  0  0  0  0
    6.9762   -0.2997   -0.8404 C   0  0  0  0  0  0  0  0  0  0  0  0
    7.7279   -1.6537   -0.3430 N   0  0  0  0  0  0  0  0  0  0  0  0
    7.5780   -1.9879    1.1726 C   0  0  0  0  0  0  0  0  0  0  0  0
    6.4973   -0.1700   -2.3666 C   0  0  0  0  0  0  0  0  0  0  0  0
    7.3013   -0.7680   -3.5186 C   0  0  0  0  0  0  0  0  0  0  0  0
    7.9624    0.8259   -0.5855 C   0  0  0  0  0  0  0  0  0  0  0  0
    9.1202    0.5123   -1.1562 C   0  0  0  0  0  0  0  0  0  0  0  0
   10.4856    0.8397   -0.9156 C   0  0  0  0  0  0  0  0  0  0  0  0
   11.1349   -0.2351   -0.5043 C   0  0  0  0  0  0  0  0  0  0  0  0
   12.5067   -0.5413   -0.8868 C   0  0  0  0  0  0  0  0  0  0  0  0
   13.1116   -1.6268   -0.4322 C   0  0  0  0  0  0  0  0  0  0  0  0
   14.3639   -2.0357   -1.0156 C   0  0  0  0  0  0  0  0  0  0  0  0
   14.7955   -3.2984   -0.8556 C   0  0  0  0  0  0  0  0  0  0  0  0
   14.9289   -4.0266   -2.1380 C   0  0  0  0  0  0  0  0  0  0  0  0
   13.7145   -4.5730   -2.5138 C   0  0  0  0  0  0  0  0  0  0  0  0
   12.5163   -3.7601   -2.9864 C   0  0  0  0  0  0  0  0  0  0  0  0
   12.8687   -3.3411   -4.2393 F   0  0  0  0  0  0  0  0  0  0  0  0
   11.1297   -4.0704   -2.8884 C   0  0  0  0  0  0  0  0  0  0  0  0
    9.9344   -3.5366   -1.8317 C   0  0  0  0  0  0  0  0  0  0  0  0
    8.4938   -3.6078   -1.8742 C   0  0  0  0  0  0  0  0  0  0  0  0
    7.2560   -2.7400   -1.1088 C   0  0  0  0  0  0  0  0  0  0  0  0
    3.9503   -2.3129   -1.9606 H   0  0  0  0  0  0  0  0  0  0  0  0
    3.9299   -3.6646   -0.8730 H   0  0  0  0  0  0  0  0  0  0  0  0
    4.6312   -3.8156   -2.5250 H   0  0  0  0  0  0  0  0  0  0  0  0
    4.3372   -1.8167    0.5255 H   0  0  0  0  0  0  0  0  0  0  0  0
    5.0784    0.6700    0.1208 H   0  0  0  0  0  0  0  0  0  0  0  0
    8.5308   -1.9760    1.6955 H   0  0  0  0  0  0  0  0  0  0  0  0
    7.1830   -3.0204    1.2953 H   0  0  0  0  0  0  0  0  0  0  0  0
    6.8701   -1.3672    1.7401 H   0  0  0  0  0  0  0  0  0  0  0  0
    6.3517    0.8995   -2.5922 H   0  0  0  0  0  0  0  0  0  0  0  0
    5.4881   -0.5653   -2.4865 H   0  0  0  0  0  0  0  0  0  0  0  0
    8.3656   -0.5469   -3.4899 H   0  0  0  0  0  0  0  0  0  0  0  0
    6.9247   -0.3650   -4.4636 H   0  0  0  0  0  0  0  0  0  0  0  0
    7.1632   -1.8509   -3.5874 H   0  0  0  0  0  0  0  0  0  0  0  0
    7.7852    1.7094   -0.0134 H   0  0  0  0  0  0  0  0  0  0  0  0
    9.1551   -0.4407   -1.6584 H   0  0  0  0  0  0  0  0  0  0  0  0
   10.9100    1.6793   -1.4313 H   0  0  0  0  0  0  0  0  0  0  0  0
   10.6028   -1.1191   -0.1126 H   0  0  0  0  0  0  0  0  0  0  0  0
   12.9267    0.0608   -1.7057 H   0  0  0  0  0  0  0  0  0  0  0  0
   12.5784   -2.3326    0.2150 H   0  0  0  0  0  0  0  0  0  0  0  0
   14.6098   -1.4887   -1.9254 H   0  0  0  0  0  0  0  0  0  0  0  0
   14.5053   -3.9021   -0.0000 H   0  0  0  0  0  0  0  0  0  0  0  0
   15.4399   -3.3137   -2.7958 H   0  0  0  0  0  0  0  0  0  0  0  0
   13.5411   -5.5570   -2.1040 H   0  0  0  0  0  0  0  0  0  0  0  0
   11.0300   -5.1689   -2.9373 H   0  0  0  0  0  0  0  0  0  0  0  0
   10.2862   -4.1857   -1.0013 H   0  0  0  0  0  0  0  0  0  0  0  0
    8.1661   -4.6022   -1.5480 H   0  0  0  0  0  0  0  0  0  0  0  0
  1  2  1  0  0  0  0
  1 26  1  0  0  0  0
  1 27  1  0  0  0  0
  1 28  1  0  0  0  0
  2  3  1  0  0  0  0
  2 25  2  0  0  0  0
  3  4  1  0  0  0  0
  3 29  1  0  0  0  0
  4  5  2  0  0  0  0
  4 30  1  0  0  0  0
  5  6  1  0  0  0  0
  5  8  1  0  0  0  0
  5 10  1  0  0  0  0
  6  7  1  0  0  0  0
  6 25  1  0  0  0  0
  7 31  1  0  0  0  0
  7 32  1  0  0  0  0
  7 33  1  0  0  0  0
  8  9  1  0  0  0  0
  8 34  1  0  0  0  0
  8 35  1  0  0  0  0
  9 36  1  0  0  0  0
  9 37  1  0  0  0  0
  9 38  1  0  0  0  0
 10 11  2  3  0  0  0
 10 39  1  0  0  0  0
 11 12  1  0  0  0  0
 11 40  1  0  0  0  0
 12 13  2  3  0  0  0
 12 41  1  0  0  0  0
 13 14  1  0  0  0  0
 13 42  1  0  0  0  0
 14 15  2  3  0  0  0
 14 43  1  0  0  0  0
 15 16  1  0  0  0  0
 15 44  1  0  0  0  0
 16 17  2  3  0  0  0
 16 45  1  0  0  0  0
 17 18  1  0  0  0  0
 17 46  1  0  0  0  0
 18 19  2  3  0  0  0
 18 47  1  0  0  0  0
 19 20  1  0  0  0  0
 19 48  1  0  0  0  0
 20 21  1  0  0  0  0
 20 22  2  3  0  0  0
 22 23  1  0  0  0  0
 22 49  1  0  0  0  0
 23 24  2  3  0  0  0
 23 50  1  0  0  0  0
 24 25  1  0  0  0  0
 24 51  1  0  0  0  0
M  END
$$$$
