
 OpenBabel04232216513D

 67 68  0  0  1  0  0  0  0  0999 V2000
    4.6051    2.0132    0.7139 C   0  0  0  0  0  0  0  0  0  0  0  0
    5.9374    3.7429    0.8265 C   0  0  0  0  0  0  0  0  0  0  0  0
    7.8724    4.8768    0.6223 C   0  0  3  0  0  0  0  0  0  0  0  0
    7.1040    3.1059    0.0820 C   0  0  0  0  0  0  0  0  0  0  0  0
    6.8703    3.7954   -1.2923 C   0  0  0  0  0  0  0  0  0  0  0  0
    8.5138    3.0518   -0.9396 C   0  0  0  0  0  0  0  0  0  0  0  0
    9.8622    4.2666   -0.6095 C   0  0  0  0  0  0  0  0  0  0  0  0
   11.5753    4.9221    0.1940 C   0  0  0  0  0  0  0  0  0  0  0  0
   12.8718    6.0301   -0.0924 C   0  0  0  0  0  0  0  0  0  0  0  0
   12.2051    5.5567   -1.4776 C   0  0  0  0  0  0  0  0  0  0  0  0
   12.0733    6.3186   -2.5314 C   0  0  0  0  0  0  0  0  0  0  0  0
   13.4998    6.3920   -2.6319 C   0  0  0  0  0  0  0  0  0  0  0  0
   14.1106    7.5484   -2.5179 C   0  0  0  0  0  0  0  0  0  0  0  0
   15.4649    7.3958   -2.1508 C   0  0  0  0  0  0  0  0  0  0  0  0
   16.2841    8.3118   -2.5942 C   0  0  0  0  0  0  0  0  0  0  0  0
   17.5313    8.5038   -2.0589 C   0  0  0  0  0  0  0  0  0  0  0  0
   18.0497    9.6384   -2.4930 C   0  0  0  0  0  0  0  0  0  0  0  0
   19.4030    9.4490   -2.5855 C   0  0  0  0  0  0  0  0  0  0  0  0
   20.1021   10.1732   -3.4008 C   0  0  0  0  0  0  0  0  0  0  0  0
   21.4454    9.9673   -3.1065 C   0  0  0  0  0  0  0  0  0  0  0  0
   21.8084   11.2165   -3.1427 C   0  0  0  0  0  0  0  0  0  0  0  0
   23.2150   11.3315   -3.1981 C   0  0  0  0  0  0  0  0  0  0  0  0
   23.3689   12.5173   -2.6488 C   0  0  0  0  0  0  0  0  0  0  0  0
   22.5897   12.1260   -1.0489 C   0  0  0  0  0  0  0  0  0  0  0  0
   20.9529   11.7515   -0.7112 C   0  0  0  0  0  0  0  0  0  0  0  0
   19.1280   10.8009   -0.1573 C   0  0  0  0  0  0  0  0  0  0  0  0
   17.4796    9.8288    0.1054 C   0  0  0  0  0  0  0  0  0  0  0  0
   15.3941    8.8676    0.1800 C   0  0  0  0  0  0  0  0  0  0  0  0
   13.6840    7.8658    0.3220 C   0  0  0  0  0  0  0  0  0  0  0  0
   11.4859    7.2355    0.4616 C   0  0  0  0  0  0  0  0  0  0  0  0
    9.7601    6.3321    0.4477 C   0  0  0  0  0  0  0  0  0  0  0  0
    3.6440    1.9388   -0.1719 H   0  0  0  0  0  0  0  0  0  0  0  0
    3.6364    1.7130    1.4305 H   0  0  0  0  0  0  0  0  0  0  0  0
    4.6623    0.7854    0.3185 H   0  0  0  0  0  0  0  0  0  0  0  0
    4.8606    4.2093    0.6414 H   0  0  0  0  0  0  0  0  0  0  0  0
    5.3392    3.1403   -0.3065 H   0  0  0  0  0  0  0  0  0  0  0  0
    7.3119    5.6170   -0.0645 H   0  0  0  0  0  0  0  0  0  0  0  0
    6.6822    2.1214   -0.7434 H   0  0  0  0  0  0  0  0  0  0  0  0
    6.7172    2.0420    0.7721 H   0  0  0  0  0  0  0  0  0  0  0  0
    6.1257    4.6480   -0.8736 H   0  0  0  0  0  0  0  0  0  0  0  0
    5.9953    3.3154   -1.9006 H   0  0  0  0  0  0  0  0  0  0  0  0
    8.3575    2.2336   -1.6840 H   0  0  0  0  0  0  0  0  0  0  0  0
    8.6711    2.3558    0.0482 H   0  0  0  0  0  0  0  0  0  0  0  0
    9.5995    4.1464    0.4696 H   0  0  0  0  0  0  0  0  0  0  0  0
    9.2892    4.9911   -1.2580 H   0  0  0  0  0  0  0  0  0  0  0  0
   11.3864    4.0681   -0.5486 H   0  0  0  0  0  0  0  0  0  0  0  0
   12.4581    4.4870   -1.7036 H   0  0  0  0  0  0  0  0  0  0  0  0
   11.4437    7.2029   -2.3879 H   0  0  0  0  0  0  0  0  0  0  0  0
   14.1019    5.5827   -2.0963 H   0  0  0  0  0  0  0  0  0  0  0  0
   13.5137    8.4341   -2.2974 H   0  0  0  0  0  0  0  0  0  0  0  0
   15.7738    6.7058   -1.3651 H   0  0  0  0  0  0  0  0  0  0  0  0
   16.4659    8.3590   -3.6594 H   0  0  0  0  0  0  0  0  0  0  0  0
   18.0679    7.6860   -1.5930 H   0  0  0  0  0  0  0  0  0  0  0  0
   17.5193   10.5665   -2.7165 H   0  0  0  0  0  0  0  0  0  0  0  0
   19.8899    8.7625   -1.8998 H   0  0  0  0  0  0  0  0  0  0  0  0
   19.7541   11.1194   -3.8800 H   0  0  0  0  0  0  0  0  0  0  0  0
   21.9752    9.3721   -2.3336 H   0  0  0  0  0  0  0  0  0  0  0  0
   20.9945   11.9184   -2.7091 H   0  0  0  0  0  0  0  0  0  0  0  0
   23.6487   10.5824   -2.4988 H   0  0  0  0  0  0  0  0  0  0  0  0
   23.6235   13.3461   -3.3956 H   0  0  0  0  0  0  0  0  0  0  0  0
   24.0007   12.1783   -1.2115 H   0  0  0  0  0  0  0  0  0  0  0  0
   21.2752   12.9836   -1.0666 H   0  0  0  0  0  0  0  0  0  0  0  0
   20.3354   10.7483    0.2427 H   0  0  0  0  0  0  0  0  0  0  0  0
   17.5227   10.9052   -0.5463 H   0  0  0  0  0  0  0  0  0  0  0  0
   15.5572   10.0573   -0.2369 H   0  0  0  0  0  0  0  0  0  0  0  0
   11.2082    8.0916   -0.2325 H   0  0  0  0  0  0  0  0  0  0  0  0
    9.0423    6.8925   -0.0929 H   0  0  0  0  0  0  0  0  0  0  0  0
  1  2  1  0  0  0  0
  1 32  1  0  0  0  0
  1 33  1  0  0  0  0
  1 34  1  0  0  0  0
  2  3  1  0  0  0  0
  2 35  1  0  0  0  0
  2 36  1  0  0  0  0
  3  4  1  0  0  0  0
  3 31  1  0  0  0  0
  3 37  1  0  0  0  0
  4  5  1  0  0  0  0
  4 38  1  0  0  0  0
  4 39  1  0  0  0  0
  5  6  1  0  0  0  0
  5 40  1  0  0  0  0
  5 41  1  0  0  0  0
  6  7  1  0  0  0  0
  6 42  1  0  0  0  0
  6 43  1  0  0  0  0
  7  8  1  0  0  0  0
  7 44  1  0  0  0  0
  7 45  1  0  0  0  0
  8  9  2  3  0  0  0
  8 46  1  0  0  0  0
  9 10  1  0  0  0  0
  9 29  1  0  0  0  0
 10 11  2  3  0  0  0
 10 47  1  0  0  0  0
 11 12  1  0  0  0  0
 11 48  1  0  0  0  0
 12 13  2  3  0  0  0
 12 49  1  0  0  0  0
 13 14  1  0  0  0  0
 13 50  1  0  0  0  0
 14 15  2  3  0  0  0
 14 51  1  0  0  0  0
 15 16  1  0  0  0  0
 15 52  1  0  0  0  0
 16 17  2  3  0  0  0
 16 53  1  0  0  0  0
 17 18  1  0  0  0  0
 17 54  1  0  0  0  0
 18 19  2  3  0  0  0
 18 55  1  0  0  0  0
 19 20  1  0  0  0  0
 19 56  1  0  0  0  0
 20 21  2  3  0  0  0
 20 57  1  0  0  0  0
 21 22  1  0  0  0  0
 21 58  1  0  0  0  0
 22 23  2  3  0  0  0
 22 59  1  0  0  0  0
 23 24  1  0  0  0  0
 23 60  1  0  0  0  0
 24 25  2  3  0  0  0
 24 61  1  0  0  0  0
 25 26  1  0  0  0  0
 25 62  1  0  0  0  0
 26 27  2  3  0  0  0
 26 63  1  0  0  0  0
 27 28  1  0  0  0  0
 27 64  1  0  0  0  0
 28 29  2  3  0  0  0
 28 65  1  0  0  0  0
 29 30  1  0  0  0  0
 30 31  2  3  0  0  0
 30 66  1  0  0  0  0
 31 67  1  0  0  0  0
M  END
$$$$
