
 OpenBabel04232216463D

 60 61  0  0  0  0  0  0  0  0999 V2000
    6.2710    0.3517    1.4779 C   0  0  0  0  0  0  0  0  0  0  0  0
    7.3635   -0.8869    1.3610 C   0  0  0  0  0  0  0  0  0  0  0  0
    6.5292   -1.9075    1.2463 C   0  0  0  0  0  0  0  0  0  0  0  0
    6.2282   -2.0219   -0.1985 C   0  0  0  0  0  0  0  0  0  0  0  0
    6.3049   -0.8871   -1.2176 C   0  0  0  0  0  0  0  0  0  0  0  0
    5.7783   -3.2181   -0.5208 N   0  0  0  0  0  0  0  0  0  0  0  0
    6.6317   -4.2480    0.1788 C   0  0  0  0  0  0  0  0  0  0  0  0
    6.3438   -4.7831    1.6415 C   0  0  0  0  0  0  0  0  0  0  0  0
    7.6731   -4.5603    2.4341 C   0  0  0  0  0  0  0  0  0  0  0  0
    8.4336   -5.2779    3.6192 C   0  0  0  0  0  0  0  0  0  0  0  0
    9.8082   -4.4875    3.6411 C   0  0  0  0  0  0  0  0  0  0  0  0
   11.2936   -4.0076    4.2249 C   0  0  0  0  0  0  0  0  0  0  0  0
   11.9287   -4.6011    5.0964 O   0  0  0  0  0  0  0  0  0  0  0  0
   12.0599   -2.6329    3.3271 C   0  0  0  0  0  0  0  0  0  0  0  0
   11.2458   -2.3508    2.2569 C   0  0  0  0  0  0  0  0  0  0  0  0
   11.2443   -2.7333    0.8909 C   0  0  0  0  0  0  0  0  0  0  0  0
   12.3230   -4.3120    0.8390 C   0  0  0  0  0  0  0  0  0  0  0  0
   13.8513   -5.0565    1.6627 C   0  0  0  0  0  0  0  0  0  0  0  0
   15.5262   -4.7215    1.5159 C   0  0  0  0  0  0  0  0  0  0  0  0
   15.5184   -3.2987    1.1811 C   0  0  0  0  0  0  0  0  0  0  0  0
   16.0880   -2.0237    0.6941 C   0  0  0  0  0  0  0  0  0  0  0  0
   14.7429   -1.1672    0.8044 C   0  0  0  0  0  0  0  0  0  0  0  0
   14.1062   -1.0907    2.3054 C   0  0  0  0  0  0  0  0  0  0  0  0
   13.3303   -2.2744    3.0567 C   0  0  0  0  0  0  0  0  0  0  0  0
    9.6538   -2.5769    0.6840 N   0  0  0  0  0  0  0  0  0  0  0  0
    8.9852   -1.3589    0.7586 C   0  0  0  0  0  0  0  0  0  0  0  0
    5.3989    0.0306    2.1122 H   0  0  0  0  0  0  0  0  0  0  0  0
    5.6713    0.5277    0.5590 H   0  0  0  0  0  0  0  0  0  0  0  0
    6.5177    1.3282    1.8842 H   0  0  0  0  0  0  0  0  0  0  0  0
    5.5609   -1.9542    1.7776 H   0  0  0  0  0  0  0  0  0  0  0  0
    5.3333   -0.5011   -1.5381 H   0  0  0  0  0  0  0  0  0  0  0  0
    6.8858   -1.2217   -2.0772 H   0  0  0  0  0  0  0  0  0  0  0  0
    6.8866   -0.0198   -0.8590 H   0  0  0  0  0  0  0  0  0  0  0  0
    7.6048   -3.7476    0.2038 H   0  0  0  0  0  0  0  0  0  0  0  0
    6.8231   -5.0604   -0.5150 H   0  0  0  0  0  0  0  0  0  0  0  0
    6.0873   -5.8396    1.5698 H   0  0  0  0  0  0  0  0  0  0  0  0
    5.5067   -4.2706    2.1374 H   0  0  0  0  0  0  0  0  0  0  0  0
    7.6076   -3.5179    2.7577 H   0  0  0  0  0  0  0  0  0  0  0  0
    8.4286   -4.6411    1.6483 H   0  0  0  0  0  0  0  0  0  0  0  0
    8.5810   -6.3275    3.3250 H   0  0  0  0  0  0  0  0  0  0  0  0
    7.8736   -5.2473    4.5539 H   0  0  0  0  0  0  0  0  0  0  0  0
    9.4143   -3.4696    3.5116 H   0  0  0  0  0  0  0  0  0  0  0  0
   10.1912   -4.9836    2.7365 H   0  0  0  0  0  0  0  0  0  0  0  0
   10.8437   -3.3553    2.3150 H   0  0  0  0  0  0  0  0  0  0  0  0
   12.4126   -4.6406   -0.2020 H   0  0  0  0  0  0  0  0  0  0  0  0
   11.6571   -5.0580    1.2917 H   0  0  0  0  0  0  0  0  0  0  0  0
   13.6885   -5.0458    2.7456 H   0  0  0  0  0  0  0  0  0  0  0  0
   13.8475   -6.1352    1.4377 H   0  0  0  0  0  0  0  0  0  0  0  0
   16.0911   -5.3482    0.8156 H   0  0  0  0  0  0  0  0  0  0  0  0
   16.0337   -4.8721    2.4970 H   0  0  0  0  0  0  0  0  0  0  0  0
   15.4317   -2.9757    2.2070 H   0  0  0  0  0  0  0  0  0  0  0  0
   14.6826   -3.3701    0.4962 H   0  0  0  0  0  0  0  0  0  0  0  0
   16.4733   -2.1008   -0.3300 H   0  0  0  0  0  0  0  0  0  0  0  0
   16.8769   -1.5886    1.3225 H   0  0  0  0  0  0  0  0  0  0  0  0
   14.9490   -0.1709    0.4038 H   0  0  0  0  0  0  0  0  0  0  0  0
   13.9937   -1.5990    0.1189 H   0  0  0  0  0  0  0  0  0  0  0  0
   14.9991   -0.9618    2.9333 H   0  0  0  0  0  0  0  0  0  0  0  0
   13.5706   -0.1373    2.3955 H   0  0  0  0  0  0  0  0  0  0  0  0
   13.8824   -3.1777    3.0577 H   0  0  0  0  0  0  0  0  0  0  0  0
    9.5009   -0.4654    0.3717 H   0  0  0  0  0  0  0  0  0  0  0  0
  1  2  1  0  0  0  0
  1 27  1  0  0  0  0
  1 28  1  0  0  0  0
  1 29  1  0  0  0  0
  2  3  2  3  0  0  0
  2 26  1  0  0  0  0
  3  4  1  0  0  0  0
  3 30  1  0  0  0  0
  4  5  1  0  0  0  0
  4  6  2  3  0  0  0
  5 31  1  0  0  0  0
  5 32  1  0  0  0  0
  5 33  1  0  0  0  0
  6  7  1  0  0  0  0
  7  8  1  0  0  0  0
  7 34  1  0  0  0  0
  7 35  1  0  0  0  0
  8  9  1  0  0  0  0
  8 36  1  0  0  0  0
  8 37  1  0  0  0  0
  9 10  1  0  0  0  0
  9 38  1  0  0  0  0
  9 39  1  0  0  0  0
 10 11  1  0  0  0  0
 10 40  1  0  0  0  0
 10 41  1  0  0  0  0
 11 12  1  0  0  0  0
 11 42  1  0  0  0  0
 11 43  1  0  0  0  0
 12 13  2  0  0  0  0
 12 14  1  0  0  0  0
 14 15  1  0  0  0  0
 14 24  2  3  0  0  0
 15 16  2  3  0  0  0
 15 44  1  0  0  0  0
 16 17  1  0  0  0  0
 16 25  1  0  0  0  0
 17 18  1  0  0  0  0
 17 45  1  0  0  0  0
 17 46  1  0  0  0  0
 18 19  1  0  0  0  0
 18 47  1  0  0  0  0
 18 48  1  0  0  0  0
 19 20  1  0  0  0  0
 19 49  1  0  0  0  0
 19 50  1  0  0  0  0
 20 21  1  0  0  0  0
 20 51  1  0  0  0  0
 20 52  1  0  0  0  0
 21 22  1  0  0  0  0
 21 53  1  0  0  0  0
 21 54  1  0  0  0  0
 22 23  1  0  0  0  0
 22 55  1  0  0  0  0
 22 56  1  0  0  0  0
 23 24  1  0  0  0  0
 23 57  1  0  0  0  0
 23 58  1  0  0  0  0
 24 59  1  0  0  0  0
 25 26  2  3  0  0  0
 26 60  1  0  0  0  0
M  END
$$$$
