
 OpenBabel04232216453D

 53 54  0  0  0  0  0  0  0  0999 V2000
    0.3482    2.1049   -0.1885 C   0  0  0  0  0  0  0  0  0  0  0  0
    1.8512    2.3401   -0.3952 C   0  0  0  0  0  0  0  0  0  0  0  0
    2.4632    0.9460   -0.3780 C   0  0  0  0  0  0  0  0  0  0  0  0
    3.6859    0.3807   -0.2723 C   0  0  0  0  0  0  0  0  0  0  0  0
    3.7546   -1.1728   -0.1725 C   0  0  0  0  0  0  0  0  0  0  0  0
    4.9083    1.0412   -0.2626 N   0  0  0  0  0  0  0  0  0  0  0  0
    6.1913    0.1542   -0.1531 C   0  0  0  0  0  0  0  0  0  0  0  0
    7.6921    0.4967   -0.2561 C   0  0  0  0  0  0  0  0  0  0  0  0
    8.4579    1.0202    0.9570 C   0  0  0  0  0  0  0  0  0  0  0  0
    4.9618    2.3980   -0.6964 N   0  0  0  0  0  0  0  0  0  0  0  0
    4.0255    3.2961   -0.7848 C   0  0  0  0  0  0  0  0  0  0  0  0
    4.6302    4.4914   -0.8057 N   0  0  0  0  0  0  0  0  0  0  0  0
    5.0401    4.6866    0.4052 C   0  0  0  0  0  0  0  0  0  0  0  0
    5.7082    5.9332    0.5865 C   0  0  0  0  0  0  0  0  0  0  0  0
    4.7522    6.8465    0.5544 C   0  0  0  0  0  0  0  0  0  0  0  0
    5.0281    8.1801    0.1775 C   0  0  0  0  0  0  0  0  0  0  0  0
    4.2065    9.0896    0.6639 C   0  0  0  0  0  0  0  0  0  0  0  0
    4.4134   10.4926    0.5143 C   0  0  0  0  0  0  0  0  0  0  0  0
    3.5552   11.1881    1.2740 C   0  0  0  0  0  0  0  0  0  0  0  0
    2.4141   11.7014    0.5173 C   0  0  0  0  0  0  0  0  0  0  0  0
    1.4698   10.7036    0.4679 C   0  0  0  0  0  0  0  0  0  0  0  0
    1.2541    9.5917   -0.5770 C   0  0  0  0  0  0  0  0  0  0  0  0
    1.2264    8.2114   -0.8971 C   0  0  0  0  0  0  0  0  0  0  0  0
    1.2306    6.5368   -0.5775 C   0  0  0  0  0  0  0  0  0  0  0  0
    1.5941    5.1264   -0.4966 C   0  0  0  0  0  0  0  0  0  0  0  0
    2.4543    3.5967   -0.5742 C   0  0  0  0  0  0  0  0  0  0  0  0
    0.0860    1.0388   -0.0735 H   0  0  0  0  0  0  0  0  0  0  0  0
   -0.2293    2.4224   -1.0600 H   0  0  0  0  0  0  0  0  0  0  0  0
   -0.0180    2.5562    0.7358 H   0  0  0  0  0  0  0  0  0  0  0  0
    1.7073    0.1632   -0.4453 H   0  0  0  0  0  0  0  0  0  0  0  0
    2.7769   -1.6651   -0.1557 H   0  0  0  0  0  0  0  0  0  0  0  0
    4.2620   -1.4981    0.7475 H   0  0  0  0  0  0  0  0  0  0  0  0
    4.2964   -1.6105   -1.0209 H   0  0  0  0  0  0  0  0  0  0  0  0
    6.0929   -0.5636   -0.9804 H   0  0  0  0  0  0  0  0  0  0  0  0
    6.1017   -0.4303    0.7742 H   0  0  0  0  0  0  0  0  0  0  0  0
    7.9433    1.0577   -1.1574 H   0  0  0  0  0  0  0  0  0  0  0  0
    8.1803   -0.4901   -0.4099 H   0  0  0  0  0  0  0  0  0  0  0  0
    8.1468    2.0254    1.2356 H   0  0  0  0  0  0  0  0  0  0  0  0
    9.5341    1.0565    0.7191 H   0  0  0  0  0  0  0  0  0  0  0  0
    8.3767    0.3535    1.8250 H   0  0  0  0  0  0  0  0  0  0  0  0
    4.7296    4.0971    1.3098 H   0  0  0  0  0  0  0  0  0  0  0  0
    6.7141    6.1223    0.2767 H   0  0  0  0  0  0  0  0  0  0  0  0
    3.6876    6.5854    0.7367 H   0  0  0  0  0  0  0  0  0  0  0  0
    5.9025    8.4144   -0.4121 H   0  0  0  0  0  0  0  0  0  0  0  0
    3.2974    8.7521    1.1621 H   0  0  0  0  0  0  0  0  0  0  0  0
    4.6989   10.8057   -0.4893 H   0  0  0  0  0  0  0  0  0  0  0  0
    3.2147   10.7188    2.2073 H   0  0  0  0  0  0  0  0  0  0  0  0
    2.8764   12.2525   -0.3225 H   0  0  0  0  0  0  0  0  0  0  0  0
    0.5291   11.1825    0.7918 H   0  0  0  0  0  0  0  0  0  0  0  0
    0.8037   10.2151   -1.3834 H   0  0  0  0  0  0  0  0  0  0  0  0
    0.6454    8.2076   -1.8403 H   0  0  0  0  0  0  0  0  0  0  0  0
    0.1408    6.5781   -0.3578 H   0  0  0  0  0  0  0  0  0  0  0  0
    0.6316    4.6654   -0.2236 H   0  0  0  0  0  0  0  0  0  0  0  0
  1  2  1  0  0  0  0
  1 27  1  0  0  0  0
  1 28  1  0  0  0  0
  1 29  1  0  0  0  0
  2  3  1  0  0  0  0
  2 26  2  0  0  0  0
  3  4  2  0  0  0  0
  3 30  1  0  0  0  0
  4  5  1  0  0  0  0
  4  6  1  0  0  0  0
  5 31  1  0  0  0  0
  5 32  1  0  0  0  0
  5 33  1  0  0  0  0
  6  7  1  0  0  0  0
  6 10  1  0  0  0  0
  7  8  1  0  0  0  0
  7 34  1  0  0  0  0
  7 35  1  0  0  0  0
  8  9  1  0  0  0  0
  8 36  1  0  0  0  0
  8 37  1  0  0  0  0
  9 38  1  0  0  0  0
  9 39  1  0  0  0  0
  9 40  1  0  0  0  0
 10 11  2  0  0  0  0
 11 12  1  0  0  0  0
 11 26  1  0  0  0  0
 12 13  2  3  0  0  0
 13 14  1  0  0  0  0
 13 41  1  0  0  0  0
 14 15  2  3  0  0  0
 14 42  1  0  0  0  0
 15 16  1  0  0  0  0
 15 43  1  0  0  0  0
 16 17  2  3  0  0  0
 16 44  1  0  0  0  0
 17 18  1  0  0  0  0
 17 45  1  0  0  0  0
 18 19  2  3  0  0  0
 18 46  1  0  0  0  0
 19 20  1  0  0  0  0
 19 47  1  0  0  0  0
 20 21  2  3  0  0  0
 20 48  1  0  0  0  0
 21 22  1  0  0  0  0
 21 49  1  0  0  0  0
 22 23  2  3  0  0  0
 22 50  1  0  0  0  0
 23 24  1  0  0  0  0
 23 51  1  0  0  0  0
 24 25  2  3  0  0  0
 24 52  1  0  0  0  0
 25 26  1  0  0  0  0
 25 53  1  0  0  0  0
M  END
$$$$
