
 OpenBabel04232217003D

156155  0  0  0  0  0  0  0  0999 V2000
   59.4838  -13.0279   71.4453 O   0  0  0  0  0  0  0  0  0  0  0  0
   60.3112  -13.9596   71.1795 C   0  0  0  0  0  0  0  0  0  0  0  0
   60.6152  -14.4527   69.8302 C   0  0  0  0  0  0  0  0  0  0  0  0
   59.8154  -13.7066   68.7692 C   0  0  0  0  0  0  0  0  0  0  0  0
   60.1670  -14.2500   67.4187 C   0  0  0  0  0  0  0  0  0  0  0  0
   59.3773  -13.5018   66.4121 C   0  0  0  0  0  0  0  0  0  0  0  0
   59.7908  -14.0743   65.2159 O   0  0  0  0  0  0  0  0  0  0  0  0
   59.0017  -13.3897   64.2781 O   0  0  0  0  0  0  0  0  0  0  0  0
   59.2941  -13.9173   63.0241 O   0  0  0  0  0  0  0  0  0  0  0  0
   58.6570  -13.1091   62.0876 O   0  0  0  0  0  0  0  0  0  0  0  0
   58.9460  -13.6461   60.8406 O   0  0  0  0  0  0  0  0  0  0  0  0
   58.0746  -13.0675   59.9281 O   0  0  0  0  0  0  0  0  0  0  0  0
   58.5198  -13.4755   58.6825 O   0  0  0  0  0  0  0  0  0  0  0  0
   57.9008  -12.6750   57.7407 O   0  0  0  0  0  0  0  0  0  0  0  0
   58.0593  -13.3424   56.5379 O   0  0  0  0  0  0  0  0  0  0  0  0
   57.2530  -12.7065   55.6199 O   0  0  0  0  0  0  0  0  0  0  0  0
   57.7635  -13.0509   54.3811 O   0  0  0  0  0  0  0  0  0  0  0  0
   57.0230  -12.3490   53.4581 O   0  0  0  0  0  0  0  0  0  0  0  0
   57.2116  -12.9946   52.2559 O   0  0  0  0  0  0  0  0  0  0  0  0
   56.5070  -12.2580   51.3321 O   0  0  0  0  0  0  0  0  0  0  0  0
   56.9455  -12.6851   50.1002 O   0  0  0  0  0  0  0  0  0  0  0  0
   56.1755  -12.0082   49.1837 O   0  0  0  0  0  0  0  0  0  0  0  0
   56.4224  -12.6157   47.9739 O   0  0  0  0  0  0  0  0  0  0  0  0
   55.6743  -11.9214   47.0526 O   0  0  0  0  0  0  0  0  0  0  0  0
   56.1677  -12.2878   45.8186 O   0  0  0  0  0  0  0  0  0  0  0  0
   55.3799  -11.6317   44.9009 O   0  0  0  0  0  0  0  0  0  0  0  0
   55.5521  -12.2875   43.6982 O   0  0  0  0  0  0  0  0  0  0  0  0
   54.9332  -11.4822   42.7622 O   0  0  0  0  0  0  0  0  0  0  0  0
   55.3815  -11.8816   41.5189 O   0  0  0  0  0  0  0  0  0  0  0  0
   54.4504  -11.3807   40.6226 O   0  0  0  0  0  0  0  0  0  0  0  0
   54.7604  -11.9024   39.3804 O   0  0  0  0  0  0  0  0  0  0  0  0
   54.2326  -11.0161   38.4496 O   0  0  0  0  0  0  0  0  0  0  0  0
   54.4432  -11.5740   37.1919 O   0  0  0  0  0  0  0  0  0  0  0  0
   53.6214  -10.8883   36.2942 O   0  0  0  0  0  0  0  0  0  0  0  0
   54.0236  -11.4090   35.0994 C   0  0  0  0  0  0  0  0  0  0  0  0
   53.2888  -10.6923   34.1597 O   0  0  0  0  0  0  0  0  0  0  0  0
   53.6758  -11.2560   32.9488 O   0  0  0  0  0  0  0  0  0  0  0  0
   52.9052  -10.6336   31.9536 O   0  0  0  0  0  0  0  0  0  0  0  0
   53.2952  -11.1510   30.7011 O   0  0  0  0  0  0  0  0  0  0  0  0
   52.5171  -10.3980   29.8155 C   0  0  0  0  0  0  0  0  0  0  0  0
   52.8260  -10.8876   28.5514 O   0  0  0  0  0  0  0  0  0  0  0  0
   52.0097  -10.1045   27.6802 O   0  0  0  0  0  0  0  0  0  0  0  0
   52.3576  -10.6176   26.4190 C   0  0  0  0  0  0  0  0  0  0  0  0
   51.6094   -9.8921   25.4767 O   0  0  0  0  0  0  0  0  0  0  0  0
   52.0834  -10.3982   24.2036 O   0  0  0  0  0  0  0  0  0  0  0  0
   51.2440   -9.7623   23.2574 C   0  0  0  0  0  0  0  0  0  0  0  0
   51.5061  -10.2641   21.9657 O   0  0  0  0  0  0  0  0  0  0  0  0
   51.1907  -11.6482   21.8731 C   0  0  0  0  0  0  0  0  0  0  0  0
   51.5365  -12.1002   20.4768 C   0  0  0  0  0  0  0  0  0  0  0  0
   51.2267  -13.4810   20.3743 O   0  0  0  0  0  0  0  0  0  0  0  0
   51.5524  -13.9980   19.0846 C   0  0  0  0  0  0  0  0  0  0  0  0
   52.9382  -13.9174   18.7613 O   0  0  0  0  0  0  0  0  0  0  0  0
   53.6112  -14.5118   19.8990 O   0  0  0  0  0  0  0  0  0  0  0  0
   54.9985  -14.3570   19.6537 C   0  0  0  0  0  0  0  0  0  0  0  0
   55.7586  -15.0802   20.6177 O   0  0  0  0  0  0  0  0  0  0  0  0
   55.4301  -16.4638   20.5610 C   0  0  0  0  0  0  0  0  0  0  0  0
   56.2252  -17.1933   21.6251 C   0  0  0  0  0  0  0  0  0  0  0  0
   55.9000  -18.6771   21.5846 C   0  0  0  0  0  0  0  0  0  0  0  0
   56.6933  -19.4258   22.6401 C   0  0  0  0  0  0  0  0  0  0  0  0
   56.3643  -20.9088   22.5816 C   0  0  0  0  0  0  0  0  0  0  0  0
   57.1609  -21.6555   23.6346 C   0  0  0  0  0  0  0  0  0  0  0  0
   56.8335  -23.1382   23.5776 C   0  0  0  0  0  0  0  0  0  0  0  0
   57.6305  -23.8834   24.6317 C   0  0  0  0  0  0  0  0  0  0  0  0
   57.3042  -25.3635   24.5743 C   0  0  0  0  0  0  0  0  0  0  0  0
   58.1016  -26.1079   25.6287 C   0  0  0  0  0  0  0  0  0  0  0  0
   57.7754  -27.5888   25.5716 C   0  0  0  0  0  0  0  0  0  0  0  0
   58.5726  -28.3312   26.6252 C   0  0  0  0  0  0  0  0  0  0  0  0
   58.2463  -29.8125   26.5680 C   0  0  0  0  0  0  0  0  0  0  0  0
   59.0462  -30.5565   27.6227 C   0  0  0  0  0  0  0  0  0  0  0  0
   58.7187  -32.0362   27.5637 C   0  0  0  0  0  0  0  0  0  0  0  0
   59.5177  -32.7831   28.6153 C   0  0  0  0  0  0  0  0  0  0  0  0
   59.1899  -34.2626   28.5596 C   0  0  0  0  0  0  0  0  0  0  0  0
   59.9895  -35.0098   29.6122 C   0  0  0  0  0  0  0  0  0  0  0  0
   59.6642  -36.4910   29.5556 C   0  0  0  0  0  0  0  0  0  0  0  0
   60.4617  -37.2379   30.6105 C   0  0  0  0  0  0  0  0  0  0  0  0
   60.1380  -38.7214   30.5571 C   0  0  0  0  0  0  0  0  0  0  0  0
   60.9358  -39.4717   31.6131 C   0  0  0  0  0  0  0  0  0  0  0  0
   60.6115  -40.9574   31.5622 C   0  0  0  0  0  0  0  0  0  0  0  0
   61.4065  -41.7190   32.6147 C   0  0  0  0  0  0  0  0  0  0  0  0
   61.0822  -43.2001   32.5627 C   0  0  0  0  0  0  0  0  0  0  0  0
   60.8414  -14.4382   71.9986 H   0  0  0  0  0  0  0  0  0  0  0  0
   60.3835  -15.5154   69.7747 H   0  0  0  0  0  0  0  0  0  0  0  0
   61.6800  -14.3253   69.6332 H   0  0  0  0  0  0  0  0  0  0  0  0
   60.0366  -12.6329   68.8049 H   0  0  0  0  0  0  0  0  0  0  0  0
   58.7390  -13.8235   68.9463 H   0  0  0  0  0  0  0  0  0  0  0  0
   59.9473  -15.3225   67.3328 H   0  0  0  0  0  0  0  0  0  0  0  0
   61.2369  -14.1418   67.1943 H   0  0  0  0  0  0  0  0  0  0  0  0
   59.6032  -12.4273   66.4009 H   0  0  0  0  0  0  0  0  0  0  0  0
   58.2915  -13.6381   66.5364 H   0  0  0  0  0  0  0  0  0  0  0  0
   53.7837  -12.4839   35.0557 H   0  0  0  0  0  0  0  0  0  0  0  0
   55.1004  -11.2639   34.9401 H   0  0  0  0  0  0  0  0  0  0  0  0
   52.7734   -9.3404   29.9001 H   0  0  0  0  0  0  0  0  0  0  0  0
   51.4534  -10.5447   30.0390 H   0  0  0  0  0  0  0  0  0  0  0  0
   52.1058  -11.6780   26.3794 H   0  0  0  0  0  0  0  0  0  0  0  0
   53.4275  -10.4782   26.2560 H   0  0  0  0  0  0  0  0  0  0  0  0
   51.4663   -8.6907   23.2702 H   0  0  0  0  0  0  0  0  0  0  0  0
   50.1858   -9.9070   23.5169 H   0  0  0  0  0  0  0  0  0  0  0  0
   50.1293  -11.8156   22.0890 H   0  0  0  0  0  0  0  0  0  0  0  0
   51.7721  -12.2314   22.6004 H   0  0  0  0  0  0  0  0  0  0  0  0
   52.6050  -11.9259   20.2997 H   0  0  0  0  0  0  0  0  0  0  0  0
   50.9719  -11.5206   19.7393 H   0  0  0  0  0  0  0  0  0  0  0  0
   50.9783  -13.4653   18.3205 H   0  0  0  0  0  0  0  0  0  0  0  0
   51.2529  -15.0504   19.0620 H   0  0  0  0  0  0  0  0  0  0  0  0
   55.2644  -13.3000   19.7398 H   0  0  0  0  0  0  0  0  0  0  0  0
   55.2564  -14.7107   18.6485 H   0  0  0  0  0  0  0  0  0  0  0  0
   55.6721  -16.8594   19.5680 H   0  0  0  0  0  0  0  0  0  0  0  0
   54.3594  -16.6125   20.7497 H   0  0  0  0  0  0  0  0  0  0  0  0
   55.9945  -16.7760   22.6136 H   0  0  0  0  0  0  0  0  0  0  0  0
   57.2965  -17.0258   21.4669 H   0  0  0  0  0  0  0  0  0  0  0  0
   56.1314  -19.0812   20.5914 H   0  0  0  0  0  0  0  0  0  0  0  0
   54.8265  -18.8294   21.7517 H   0  0  0  0  0  0  0  0  0  0  0  0
   56.4572  -19.0313   23.6354 H   0  0  0  0  0  0  0  0  0  0  0  0
   57.7670  -19.2764   22.4759 H   0  0  0  0  0  0  0  0  0  0  0  0
   56.5987  -21.3056   21.5867 H   0  0  0  0  0  0  0  0  0  0  0  0
   55.2912  -21.0614   22.7472 H   0  0  0  0  0  0  0  0  0  0  0  0
   56.9259  -21.2622   24.6317 H   0  0  0  0  0  0  0  0  0  0  0  0
   58.2342  -21.5057   23.4705 H   0  0  0  0  0  0  0  0  0  0  0  0
   57.0682  -23.5347   22.5822 H   0  0  0  0  0  0  0  0  0  0  0  0
   55.7600  -23.2914   23.7433 H   0  0  0  0  0  0  0  0  0  0  0  0
   57.3961  -23.4875   25.6276 H   0  0  0  0  0  0  0  0  0  0  0  0
   58.7042  -23.7308   24.4664 H   0  0  0  0  0  0  0  0  0  0  0  0
   57.5391  -25.7605   23.5790 H   0  0  0  0  0  0  0  0  0  0  0  0
   56.2308  -25.5171   24.7402 H   0  0  0  0  0  0  0  0  0  0  0  0
   57.8670  -25.7116   26.6243 H   0  0  0  0  0  0  0  0  0  0  0  0
   59.1752  -25.9550   25.4631 H   0  0  0  0  0  0  0  0  0  0  0  0
   58.0098  -27.9844   24.5755 H   0  0  0  0  0  0  0  0  0  0  0  0
   56.7016  -27.7411   25.7369 H   0  0  0  0  0  0  0  0  0  0  0  0
   58.3381  -27.9352   27.6208 H   0  0  0  0  0  0  0  0  0  0  0  0
   59.6461  -28.1784   26.4595 H   0  0  0  0  0  0  0  0  0  0  0  0
   58.4798  -30.2077   25.5718 H   0  0  0  0  0  0  0  0  0  0  0  0
   57.1731  -29.9647   26.7347 H   0  0  0  0  0  0  0  0  0  0  0  0
   58.8117  -30.1595   28.6161 H   0  0  0  0  0  0  0  0  0  0  0  0
   60.1179  -30.4024   27.4540 H   0  0  0  0  0  0  0  0  0  0  0  0
   58.9522  -32.4317   26.5676 H   0  0  0  0  0  0  0  0  0  0  0  0
   57.6453  -32.1888   27.7305 H   0  0  0  0  0  0  0  0  0  0  0  0
   59.2844  -32.3860   29.6138 H   0  0  0  0  0  0  0  0  0  0  0  0
   60.5899  -32.6302   28.4492 H   0  0  0  0  0  0  0  0  0  0  0  0
   59.4223  -34.6592   27.5643 H   0  0  0  0  0  0  0  0  0  0  0  0
   58.1165  -34.4161   28.7283 H   0  0  0  0  0  0  0  0  0  0  0  0
   59.7567  -34.6134   30.6087 H   0  0  0  0  0  0  0  0  0  0  0  0
   61.0624  -34.8561   29.4442 H   0  0  0  0  0  0  0  0  0  0  0  0
   59.8987  -36.8873   28.5599 H   0  0  0  0  0  0  0  0  0  0  0  0
   58.5905  -36.6441   29.7214 H   0  0  0  0  0  0  0  0  0  0  0  0
   60.2271  -36.8401   31.6057 H   0  0  0  0  0  0  0  0  0  0  0  0
   61.5354  -37.0834   30.4443 H   0  0  0  0  0  0  0  0  0  0  0  0
   60.3718  -39.1167   29.5608 H   0  0  0  0  0  0  0  0  0  0  0  0
   59.0642  -38.8728   30.7219 H   0  0  0  0  0  0  0  0  0  0  0  0
   60.7014  -39.0713   32.6071 H   0  0  0  0  0  0  0  0  0  0  0  0
   62.0085  -39.3166   31.4453 H   0  0  0  0  0  0  0  0  0  0  0  0
   60.8421  -41.3503   30.5642 H   0  0  0  0  0  0  0  0  0  0  0  0
   59.5371  -41.1053   31.7272 H   0  0  0  0  0  0  0  0  0  0  0  0
   61.1749  -41.3278   33.6123 H   0  0  0  0  0  0  0  0  0  0  0  0
   62.4802  -41.5729   32.4489 H   0  0  0  0  0  0  0  0  0  0  0  0
   60.0173  -43.3711   32.7504 H   0  0  0  0  0  0  0  0  0  0  0  0
   61.6561  -43.7404   33.3204 H   0  0  0  0  0  0  0  0  0  0  0  0
   61.3289  -43.6174   31.5812 H   0  0  0  0  0  0  0  0  0  0  0  0
  1  2  2  0  0  0  0
  2  3  1  0  0  0  0
  2 81  1  0  0  0  0
  3  4  1  0  0  0  0
  3 82  1  0  0  0  0
  3 83  1  0  0  0  0
  4  5  1  0  0  0  0
  4 84  1  0  0  0  0
  4 85  1  0  0  0  0
  5  6  1  0  0  0  0
  5 86  1  0  0  0  0
  5 87  1  0  0  0  0
  6  7  1  0  0  0  0
  6 88  1  0  0  0  0
  6 89  1  0  0  0  0
  7  8  1  0  0  0  0
  8  9  1  0  0  0  0
  9 10  1  0  0  0  0
 10 11  1  0  0  0  0
 11 12  1  0  0  0  0
 12 13  1  0  0  0  0
 13 14  1  0  0  0  0
 14 15  1  0  0  0  0
 15 16  1  0  0  0  0
 16 17  1  0  0  0  0
 17 18  1  0  0  0  0
 18 19  1  0  0  0  0
 19 20  1  0  0  0  0
 20 21  1  0  0  0  0
 21 22  1  0  0  0  0
 22 23  1  0  0  0  0
 23 24  1  0  0  0  0
 24 25  1  0  0  0  0
 25 26  1  0  0  0  0
 26 27  1  0  0  0  0
 27 28  1  0  0  0  0
 28 29  1  0  0  0  0
 29 30  1  0  0  0  0
 30 31  1  0  0  0  0
 31 32  1  0  0  0  0
 32 33  1  0  0  0  0
 33 34  1  0  0  0  0
 34 35  1  0  0  0  0
 35 36  1  0  0  0  0
 35 90  1  0  0  0  0
 35 91  1  0  0  0  0
 36 37  1  0  0  0  0
 37 38  1  0  0  0  0
 38 39  1  0  0  0  0
 39 40  1  0  0  0  0
 40 41  1  0  0  0  0
 40 92  1  0  0  0  0
 40 93  1  0  0  0  0
 41 42  1  0  0  0  0
 42 43  1  0  0  0  0
 43 44  1  0  0  0  0
 43 94  1  0  0  0  0
 43 95  1  0  0  0  0
 44 45  1  0  0  0  0
 45 46  1  0  0  0  0
 46 47  1  0  0  0  0
 46 96  1  0  0  0  0
 46 97  1  0  0  0  0
 47 48  1  0  0  0  0
 48 49  1  0  0  0  0
 48 98  1  0  0  0  0
 48 99  1  0  0  0  0
 49 50  1  0  0  0  0
 49100  1  0  0  0  0
 49101  1  0  0  0  0
 50 51  1  0  0  0  0
 51 52  1  0  0  0  0
 51102  1  0  0  0  0
 51103  1  0  0  0  0
 52 53  1  0  0  0  0
 53 54  1  0  0  0  0
 54 55  1  0  0  0  0
 54104  1  0  0  0  0
 54105  1  0  0  0  0
 55 56  1  0  0  0  0
 56 57  1  0  0  0  0
 56106  1  0  0  0  0
 56107  1  0  0  0  0
 57 58  1  0  0  0  0
 57108  1  0  0  0  0
 57109  1  0  0  0  0
 58 59  1  0  0  0  0
 58110  1  0  0  0  0
 58111  1  0  0  0  0
 59 60  1  0  0  0  0
 59112  1  0  0  0  0
 59113  1  0  0  0  0
 60 61  1  0  0  0  0
 60114  1  0  0  0  0
 60115  1  0  0  0  0
 61 62  1  0  0  0  0
 61116  1  0  0  0  0
 61117  1  0  0  0  0
 62 63  1  0  0  0  0
 62118  1  0  0  0  0
 62119  1  0  0  0  0
 63 64  1  0  0  0  0
 63120  1  0  0  0  0
 63121  1  0  0  0  0
 64 65  1  0  0  0  0
 64122  1  0  0  0  0
 64123  1  0  0  0  0
 65 66  1  0  0  0  0
 65124  1  0  0  0  0
 65125  1  0  0  0  0
 66 67  1  0  0  0  0
 66126  1  0  0  0  0
 66127  1  0  0  0  0
 67 68  1  0  0  0  0
 67128  1  0  0  0  0
 67129  1  0  0  0  0
 68 69  1  0  0  0  0
 68130  1  0  0  0  0
 68131  1  0  0  0  0
 69 70  1  0  0  0  0
 69132  1  0  0  0  0
 69133  1  0  0  0  0
 70 71  1  0  0  0  0
 70134  1  0  0  0  0
 70135  1  0  0  0  0
 71 72  1  0  0  0  0
 71136  1  0  0  0  0
 71137  1  0  0  0  0
 72 73  1  0  0  0  0
 72138  1  0  0  0  0
 72139  1  0  0  0  0
 73 74  1  0  0  0  0
 73140  1  0  0  0  0
 73141  1  0  0  0  0
 74 75  1  0  0  0  0
 74142  1  0  0  0  0
 74143  1  0  0  0  0
 75 76  1  0  0  0  0
 75144  1  0  0  0  0
 75145  1  0  0  0  0
 76 77  1  0  0  0  0
 76146  1  0  0  0  0
 76147  1  0  0  0  0
 77 78  1  0  0  0  0
 77148  1  0  0  0  0
 77149  1  0  0  0  0
 78 79  1  0  0  0  0
 78150  1  0  0  0  0
 78151  1  0  0  0  0
 79 80  1  0  0  0  0
 79152  1  0  0  0  0
 79153  1  0  0  0  0
 80154  1  0  0  0  0
 80155  1  0  0  0  0
 80156  1  0  0  0  0
M  END
$$$$
