
 OpenBabel04232216433D

 13 13  0  0  0  0  0  0  0  0999 V2000
   -0.1240   -1.3580   -0.0403 C   0  0  0  0  0  0  0  0  0  0  0  0
    1.1649   -0.8690   -0.0138 C   0  0  0  0  0  0  0  0  0  0  0  0
    1.3396    0.5080    0.0546 C   0  0  0  0  0  0  0  0  0  0  0  0
    0.2251    1.3354    0.0874 C   0  0  0  0  0  0  0  0  0  0  0  0
    0.3582    2.7325    0.1967 N   0  0  0  0  0  0  0  0  0  0  0  0
    1.4474    3.3796   -0.3862 O   0  0  0  0  0  0  0  0  0  0  0  0
   -1.0182    0.8068    0.0694 N   0  0  0  0  0  0  0  0  0  0  0  0
   -1.1992   -0.5499    0.0007 N   0  0  0  0  0  0  0  0  0  0  0  0
   -0.3358   -2.4193   -0.0916 H   0  0  0  0  0  0  0  0  0  0  0  0
    2.0159   -1.5389   -0.0460 H   0  0  0  0  0  0  0  0  0  0  0  0
    2.3388    0.9283    0.0781 H   0  0  0  0  0  0  0  0  0  0  0  0
   -0.5479    3.1572   -0.0091 H   0  0  0  0  0  0  0  0  0  0  0  0
    2.0832    3.4479    0.3513 H   0  0  0  0  0  0  0  0  0  0  0  0
  1  2  1  0  0  0  0
  1  8  2  0  0  0  0
  1  9  1  0  0  0  0
  2  3  2  0  0  0  0
  2 10  1  0  0  0  0
  3  4  1  0  0  0  0
  3 11  1  0  0  0  0
  4  5  1  0  0  0  0
  4  7  2  0  0  0  0
  5  6  1  0  0  0  0
  5 12  1  0  0  0  0
  6 13  1  0  0  0  0
  7  8  1  0  0  0  0
M  END
$$$$
