
 OpenBabel04232216553D

 41 42  0  0  1  0  0  0  0  0999 V2000
    4.8560    0.8469    0.8944 C   0  0  0  0  0  0  0  0  0  0  0  0
    4.9720    0.0849    2.1667 N   0  0  0  0  0  0  0  0  0  0  0  0
    3.6266   -0.2365    2.5458 C   0  0  0  0  0  0  0  0  0  0  0  0
    3.1909   -1.6152    2.9420 C   0  0  0  0  0  0  0  0  0  0  0  0
    3.6387   -1.3991    4.4060 C   0  0  3  0  0  0  0  0  0  0  0  0
    5.0419   -2.0975    4.3825 C   0  0  0  0  0  0  0  0  0  0  0  0
    5.4784   -2.8260    3.4849 O   0  0  0  0  0  0  0  0  0  0  0  0
    5.8119   -1.9202    5.4833 O   0  0  0  0  0  0  0  0  0  0  0  0
    2.8810    0.5878    3.2121 N   0  0  0  0  0  0  0  0  0  0  0  0
    3.2360    0.1568    4.4743 C   0  0  0  0  0  0  0  0  0  0  0  0
    3.5052    1.2173    5.2576 C   0  0  0  0  0  0  0  0  0  0  0  0
    4.5598    1.0899    6.2226 C   0  0  0  0  0  0  0  0  0  0  0  0
    4.6228    0.0245    6.8495 O   0  0  0  0  0  0  0  0  0  0  0  0
    5.6573    2.1181    6.1769 C   0  0  0  0  0  0  0  0  0  0  0  0
    6.0622    3.3285    5.3089 C   0  0  0  0  0  0  0  0  0  0  0  0
    5.5328    3.8397    3.9811 C   0  0  0  0  0  0  0  0  0  0  0  0
    6.6628    1.4875    6.7914 C   0  0  0  0  0  0  0  0  0  0  0  0
    7.8863    1.3472    6.0608 C   0  0  0  0  0  0  0  0  0  0  0  0
    8.9769    2.1523    6.7505 C   0  0  0  0  0  0  0  0  0  0  0  0
    7.9240    0.6831    4.8775 C   0  0  0  0  0  0  0  0  0  0  0  0
    6.8648    0.2043    3.7248 C   0  0  0  0  0  0  0  0  0  0  0  0
    5.8189    0.8082    3.2024 N   0  0  0  0  0  0  0  0  0  0  0  0
    3.8386    1.2529    0.7554 H   0  0  0  0  0  0  0  0  0  0  0  0
    5.0190    0.1627    0.0535 H   0  0  0  0  0  0  0  0  0  0  0  0
    5.5470    1.6878    0.8331 H   0  0  0  0  0  0  0  0  0  0  0  0
    3.6335   -2.3903    2.3184 H   0  0  0  0  0  0  0  0  0  0  0  0
    2.0952   -1.7146    2.8813 H   0  0  0  0  0  0  0  0  0  0  0  0
    2.9904   -1.9724    5.0757 H   0  0  0  0  0  0  0  0  0  0  0  0
    5.4038   -1.3254    6.1597 H   0  0  0  0  0  0  0  0  0  0  0  0
    3.2436    2.2182    4.9341 H   0  0  0  0  0  0  0  0  0  0  0  0
    7.1272    3.2367    5.0504 H   0  0  0  0  0  0  0  0  0  0  0  0
    6.0797    4.1883    5.9937 H   0  0  0  0  0  0  0  0  0  0  0  0
    5.5725    3.1120    3.1749 H   0  0  0  0  0  0  0  0  0  0  0  0
    6.2078    4.6493    3.6514 H   0  0  0  0  0  0  0  0  0  0  0  0
    4.5375    4.2671    4.0661 H   0  0  0  0  0  0  0  0  0  0  0  0
    6.5514    0.7342    7.5741 H   0  0  0  0  0  0  0  0  0  0  0  0
    9.2711    2.9895    6.1012 H   0  0  0  0  0  0  0  0  0  0  0  0
    9.8566    1.5977    7.0707 H   0  0  0  0  0  0  0  0  0  0  0  0
    8.5807    2.6627    7.6496 H   0  0  0  0  0  0  0  0  0  0  0  0
    8.8415    0.1170    4.7073 H   0  0  0  0  0  0  0  0  0  0  0  0
    7.1804   -0.7488    3.2724 H   0  0  0  0  0  0  0  0  0  0  0  0
  1  2  1  0  0  0  0
  1 23  1  0  0  0  0
  1 24  1  0  0  0  0
  1 25  1  0  0  0  0
  2  3  1  0  0  0  0
  2 22  1  0  0  0  0
  3  4  1  0  0  0  0
  3  9  2  0  0  0  0
  4  5  1  0  0  0  0
  4 26  1  0  0  0  0
  4 27  1  0  0  0  0
  5  6  1  0  0  0  0
  5 10  1  0  0  0  0
  5 28  1  0  0  0  0
  6  7  2  0  0  0  0
  6  8  1  0  0  0  0
  8 29  1  0  0  0  0
  9 10  1  0  0  0  0
 10 11  2  3  0  0  0
 11 12  1  0  0  0  0
 11 30  1  0  0  0  0
 12 13  2  0  0  0  0
 12 14  1  0  0  0  0
 14 15  1  0  0  0  0
 14 17  2  3  0  0  0
 15 16  1  0  0  0  0
 15 31  1  0  0  0  0
 15 32  1  0  0  0  0
 16 33  1  0  0  0  0
 16 34  1  0  0  0  0
 16 35  1  0  0  0  0
 17 18  1  0  0  0  0
 17 36  1  0  0  0  0
 18 19  1  0  0  0  0
 18 20  2  3  0  0  0
 19 37  1  0  0  0  0
 19 38  1  0  0  0  0
 19 39  1  0  0  0  0
 20 21  1  0  0  0  0
 20 40  1  0  0  0  0
 21 22  2  3  0  0  0
 21 41  1  0  0  0  0
M  END
$$$$
