
 OpenBabel04232216573D

 14 13  0  0  0  0  0  0  0  0999 V2000
    3.7211   -1.0318   -1.4499 C   0  0  0  0  0  0  0  0  0  0  0  0
    3.2529   -0.1317    0.0438 S   0  0  0  0  0  0  0  0  0  0  0  0
    3.5055    1.8197   -0.5556 S   0  0  0  0  0  0  0  0  0  0  0  0
    5.3058    2.0361   -0.4065 C   0  0  0  0  0  0  0  0  0  0  0  0
    5.8179    3.5534   -1.2596 S   0  0  0  0  0  0  0  0  0  0  0  0
    7.8584    3.4796   -1.0849 S   0  0  0  0  0  0  0  0  0  0  0  0
    8.5199    2.0736   -2.4287 S   0  0  0  0  0  0  0  0  0  0  0  0
    8.4975    2.9563   -4.2791 S   0  0  0  0  0  0  0  0  0  0  0  0
    3.5120   -2.0963   -1.3073 H   0  0  0  0  0  0  0  0  0  0  0  0
    4.7776   -0.9309   -1.6568 H   0  0  0  0  0  0  0  0  0  0  0  0
    3.1565   -0.6835   -2.3274 H   0  0  0  0  0  0  0  0  0  0  0  0
    5.7944    1.1892   -0.9115 H   0  0  0  0  0  0  0  0  0  0  0  0
    5.5882    2.0576    0.6416 H   0  0  0  0  0  0  0  0  0  0  0  0
    7.5574    2.2049   -4.8774 H   0  0  0  0  0  0  0  0  0  0  0  0
  1  2  1  0  0  0  0
  1  9  1  0  0  0  0
  1 10  1  0  0  0  0
  1 11  1  0  0  0  0
  2  3  1  0  0  0  0
  3  4  1  0  0  0  0
  4  5  1  0  0  0  0
  4 12  1  0  0  0  0
  4 13  1  0  0  0  0
  5  6  1  0  0  0  0
  6  7  1  0  0  0  0
  7  8  1  0  0  0  0
  8 14  1  0  0  0  0
M  END
$$$$
