
 OpenBabel04232216553D

 14 14  0  0  0  0  0  0  0  0999 V2000
    1.2113    0.2112   -0.0529 C   0  0  0  0  0  0  0  0  0  0  0  0
    2.6429    0.1501   -0.0591 N   0  0  0  0  0  0  0  0  0  0  0  0
    3.5388    1.2000   -0.0612 C   0  0  0  0  0  0  0  0  0  0  0  0
    3.3110    2.3973   -0.0588 O   0  0  0  0  0  0  0  0  0  0  0  0
    4.7588    0.5535   -0.0668 N   0  0  0  0  0  0  0  0  0  0  0  0
    6.0667    1.1379   -0.0718 C   0  0  0  0  0  0  0  0  0  0  0  0
    4.5665   -0.7995   -0.0677 N   0  0  0  0  0  0  0  0  0  0  0  0
    3.3193   -1.0374   -0.0631 N   0  0  0  0  0  0  0  0  0  0  0  0
    0.8712    1.2497   -0.0527 H   0  0  0  0  0  0  0  0  0  0  0  0
    0.8397   -0.2956    0.8420 H   0  0  0  0  0  0  0  0  0  0  0  0
    0.8323   -0.2979   -0.9433 H   0  0  0  0  0  0  0  0  0  0  0  0
    6.0004    2.2287   -0.0707 H   0  0  0  0  0  0  0  0  0  0  0  0
    6.5990    0.8048   -0.9671 H   0  0  0  0  0  0  0  0  0  0  0  0
    6.6065    0.8034    0.8183 H   0  0  0  0  0  0  0  0  0  0  0  0
  1  2  1  0  0  0  0
  1  9  1  0  0  0  0
  1 10  1  0  0  0  0
  1 11  1  0  0  0  0
  2  3  1  0  0  0  0
  2  8  1  0  0  0  0
  3  4  2  0  0  0  0
  3  5  1  0  0  0  0
  5  6  1  0  0  0  0
  5  7  1  0  0  0  0
  6 12  1  0  0  0  0
  6 13  1  0  0  0  0
  6 14  1  0  0  0  0
  7  8  2  0  0  0  0
M  END
$$$$
