
 OpenBabel04232216563D

104104  0  0  1  0  0  0  0  0999 V2000
    1.1637   -0.0757    0.0436 C   0  0  0  0  0  0  0  0  0  0  0  0
    2.6211    0.0286    0.0278 N   0  0  0  0  0  0  0  0  0  0  0  0
    3.1027    1.1370    0.8882 C   0  0  0  0  0  0  0  0  0  0  0  0
    4.2208    0.2010    1.3714 C   0  0  0  0  0  0  0  0  0  0  0  0
    3.2409   -0.8982    1.0098 C   0  0  3  0  0  0  0  0  0  0  0  0
    3.8953   -1.9816    0.3996 O   0  0  0  0  0  0  0  0  0  0  0  0
    2.8032   -2.8361    0.1095 O   0  0  0  0  0  0  0  0  0  0  0  0
    3.2913   -3.9327   -0.5978 O   0  0  0  0  0  0  0  0  0  0  0  0
    2.2173   -4.7860   -0.8204 O   0  0  0  0  0  0  0  0  0  0  0  0
    2.7287   -5.9022   -1.4589 O   0  0  0  0  0  0  0  0  0  0  0  0
    1.6651   -6.7304   -1.7263 O   0  0  0  0  0  0  0  0  0  0  0  0
    2.1892   -7.8263   -2.3716 O   0  0  0  0  0  0  0  0  0  0  0  0
    1.1433   -8.6936   -2.5821 O   0  0  0  0  0  0  0  0  0  0  0  0
    1.6796   -9.7491   -3.2832 O   0  0  0  0  0  0  0  0  0  0  0  0
    0.6170  -10.5652   -3.5880 O   0  0  0  0  0  0  0  0  0  0  0  0
    1.1697  -11.6894   -4.1487 O   0  0  0  0  0  0  0  0  0  0  0  0
    0.1176  -12.5453   -4.3485 O   0  0  0  0  0  0  0  0  0  0  0  0
    0.6367  -13.5900   -5.0662 O   0  0  0  0  0  0  0  0  0  0  0  0
   -0.4275  -14.4133   -5.3159 O   0  0  0  0  0  0  0  0  0  0  0  0
    0.1134  -15.5076   -5.9327 O   0  0  0  0  0  0  0  0  0  0  0  0
   -0.9461  -16.3396   -6.1673 O   0  0  0  0  0  0  0  0  0  0  0  0
   -0.4119  -17.4011   -6.8376 O   0  0  0  0  0  0  0  0  0  0  0  0
   -1.4650  -18.2401   -7.0634 O   0  0  0  0  0  0  0  0  0  0  0  0
   -0.9215  -19.3149   -7.7011 O   0  0  0  0  0  0  0  0  0  0  0  0
   -1.9779  -20.1420   -7.9449 O   0  0  0  0  0  0  0  0  0  0  0  0
   -1.4378  -21.2129   -8.5935 O   0  0  0  0  0  0  0  0  0  0  0  0
   -2.4944  -22.0450   -8.8200 O   0  0  0  0  0  0  0  0  0  0  0  0
   -1.9548  -23.1130   -9.4739 O   0  0  0  0  0  0  0  0  0  0  0  0
   -3.0134  -23.9388   -9.7126 O   0  0  0  0  0  0  0  0  0  0  0  0
   -2.4717  -25.0116  -10.3567 O   0  0  0  0  0  0  0  0  0  0  0  0
   -3.5281  -25.8429  -10.5840 O   0  0  0  0  0  0  0  0  0  0  0  0
   -2.9887  -26.9098  -11.2394 O   0  0  0  0  0  0  0  0  0  0  0  0
   -4.0471  -27.7358  -11.4765 O   0  0  0  0  0  0  0  0  0  0  0  0
   -3.5052  -28.8092  -12.1189 O   0  0  0  0  0  0  0  0  0  0  0  0
   -4.5625  -29.6380  -12.3516 O   0  0  0  0  0  0  0  0  0  0  0  0
   -4.0225  -30.7035  -13.0087 O   0  0  0  0  0  0  0  0  0  0  0  0
   -5.0775  -31.5375  -13.2324 O   0  0  0  0  0  0  0  0  0  0  0  0
   -4.5348  -32.6098  -13.8761 O   0  0  0  0  0  0  0  0  0  0  0  0
   -5.5935  -33.4333  -14.1206 O   0  0  0  0  0  0  0  0  0  0  0  0
   -5.0509  -34.5042  -14.7665 O   0  0  0  0  0  0  0  0  0  0  0  0
   -6.1055  -35.3382  -14.9918 O   0  0  0  0  0  0  0  0  0  0  0  0
   -5.5639  -36.4034  -15.6484 O   0  0  0  0  0  0  0  0  0  0  0  0
   -6.6193  -37.2347  -15.8792 O   0  0  0  0  0  0  0  0  0  0  0  0
   -6.0784  -38.3042  -16.5297 O   0  0  0  0  0  0  0  0  0  0  0  0
   -7.1407  -39.1250  -16.7735 O   0  0  0  0  0  0  0  0  0  0  0  0
   -6.6005  -40.2030  -17.4143 O   0  0  0  0  0  0  0  0  0  0  0  0
   -7.6563  -41.0426  -17.6347 O   0  0  0  0  0  0  0  0  0  0  0  0
   -7.1185  -42.1025  -18.2984 O   0  0  0  0  0  0  0  0  0  0  0  0
   -8.1845  -42.9148  -18.5702 O   0  0  0  0  0  0  0  0  0  0  0  0
   -7.6301  -44.0217  -19.1492 O   0  0  0  0  0  0  0  0  0  0  0  0
   -8.7007  -44.8401  -19.3976 O   0  0  0  0  0  0  0  0  0  0  0  0
   -8.1664  -45.8808  -20.0941 O   0  0  0  0  0  0  0  0  0  0  0  0
   -9.2119  -46.7427  -20.2766 O   0  0  0  0  0  0  0  0  0  0  0  0
   -8.6765  -47.8070  -20.9300 O   0  0  0  0  0  0  0  0  0  0  0  0
   -9.7424  -48.6204  -21.1968 O   0  0  0  0  0  0  0  0  0  0  0  0
   -9.1981  -49.7100  -21.8153 O   0  0  0  0  0  0  0  0  0  0  0  0
  -10.2473  -50.5651  -22.0081 O   0  0  0  0  0  0  0  0  0  0  0  0
   -9.7134  -51.6051  -22.7203 O   0  0  0  0  0  0  0  0  0  0  0  0
  -10.7722  -52.4287  -22.9824 O   0  0  0  0  0  0  0  0  0  0  0  0
  -10.2202  -53.5408  -23.5622 O   0  0  0  0  0  0  0  0  0  0  0  0
  -11.2795  -54.3727  -23.8118 O   0  0  0  0  0  0  0  0  0  0  0  0
  -10.7487  -55.4347  -24.4968 O   0  0  0  0  0  0  0  0  0  0  0  0
  -11.8000  -56.2898  -24.7124 O   0  0  0  0  0  0  0  0  0  0  0  0
  -11.2556  -57.3835  -25.3474 O   0  0  0  0  0  0  0  0  0  0  0  0
  -12.3060  -58.2351  -25.6207 O   0  0  0  0  0  0  0  0  0  0  0  0
  -11.7886  -59.3075  -26.2686 O   0  0  0  0  0  0  0  0  0  0  0  0
  -12.8490  -60.1676  -26.4977 O   0  0  0  0  0  0  0  0  0  0  0  0
  -12.3351  -61.2639  -27.1560 O   0  0  0  0  0  0  0  0  0  0  0  0
  -13.4172  -62.1137  -27.4004 O   0  0  0  0  0  0  0  0  0  0  0  0
  -12.8967  -63.2241  -28.0488 O   0  0  0  0  0  0  0  0  0  0  0  0
  -13.9711  -64.0797  -28.2942 O   0  0  0  0  0  0  0  0  0  0  0  0
  -13.3373  -65.1284  -28.9479 C   0  0  0  0  0  0  0  0  0  0  0  0
  -14.4682  -66.0468  -29.2126 C   0  0  0  0  0  0  0  0  0  0  0  0
  -13.9139  -67.2325  -29.9229 C   0  0  0  0  0  0  0  0  0  0  0  0
  -15.0560  -68.1706  -30.1978 C   0  0  0  0  0  0  0  0  0  0  0  0
  -14.5112  -69.3762  -30.9164 C   0  0  0  0  0  0  0  0  0  0  0  0
  -15.6451  -70.3343  -31.2029 C   0  0  0  0  0  0  0  0  0  0  0  0
  -15.1161  -71.5587  -31.9261 C   0  0  0  0  0  0  0  0  0  0  0  0
  -16.2509  -72.5179  -32.2131 C   0  0  0  0  0  0  0  0  0  0  0  0
    0.7384    0.6604   -0.6478 H   0  0  0  0  0  0  0  0  0  0  0  0
    0.7153    0.0886    1.0299 H   0  0  0  0  0  0  0  0  0  0  0  0
    0.8289   -1.0592   -0.3111 H   0  0  0  0  0  0  0  0  0  0  0  0
    2.4298    1.4343    1.6988 H   0  0  0  0  0  0  0  0  0  0  0  0
    3.4516    2.0108    0.3395 H   0  0  0  0  0  0  0  0  0  0  0  0
    4.5013    0.2020    2.4243 H   0  0  0  0  0  0  0  0  0  0  0  0
    5.1243    0.1672    0.7473 H   0  0  0  0  0  0  0  0  0  0  0  0
    2.5923   -1.2253    1.8367 H   0  0  0  0  0  0  0  0  0  0  0  0
  -12.5760  -65.5686  -28.2929 H   0  0  0  0  0  0  0  0  0  0  0  0
  -12.8631  -64.7621  -29.8664 H   0  0  0  0  0  0  0  0  0  0  0  0
  -15.2346  -65.5271  -29.8053 H   0  0  0  0  0  0  0  0  0  0  0  0
  -14.9527  -66.3186  -28.2639 H   0  0  0  0  0  0  0  0  0  0  0  0
  -13.1476  -67.7150  -29.3024 H   0  0  0  0  0  0  0  0  0  0  0  0
  -13.4300  -66.9164  -30.8563 H   0  0  0  0  0  0  0  0  0  0  0  0
  -15.8160  -67.6620  -30.8044 H   0  0  0  0  0  0  0  0  0  0  0  0
  -15.5343  -68.4593  -29.2532 H   0  0  0  0  0  0  0  0  0  0  0  0
  -13.7454  -69.8603  -30.2980 H   0  0  0  0  0  0  0  0  0  0  0  0
  -14.0272  -69.0629  -31.8496 H   0  0  0  0  0  0  0  0  0  0  0  0
  -16.4061  -69.8312  -31.8125 H   0  0  0  0  0  0  0  0  0  0  0  0
  -16.1261  -70.6266  -30.2612 H   0  0  0  0  0  0  0  0  0  0  0  0
  -14.3545  -72.0537  -31.3123 H   0  0  0  0  0  0  0  0  0  0  0  0
  -14.6345  -71.2581  -32.8641 H   0  0  0  0  0  0  0  0  0  0  0  0
  -16.7285  -72.8382  -31.2816 H   0  0  0  0  0  0  0  0  0  0  0  0
  -15.8756  -73.4015  -32.7337 H   0  0  0  0  0  0  0  0  0  0  0  0
  -17.0098  -72.0392  -32.8402 H   0  0  0  0  0  0  0  0  0  0  0  0
  1  2  1  0  0  0  0
  1 80  1  0  0  0  0
  1 81  1  0  0  0  0
  1 82  1  0  0  0  0
  2  3  1  0  0  0  0
  2  5  1  0  0  0  0
  3  4  1  0  0  0  0
  3 83  1  0  0  0  0
  3 84  1  0  0  0  0
  4  5  1  0  0  0  0
  4 85  1  0  0  0  0
  4 86  1  0  0  0  0
  5  6  1  0  0  0  0
  5 87  1  0  0  0  0
  6  7  1  0  0  0  0
  7  8  1  0  0  0  0
  8  9  1  0  0  0  0
  9 10  1  0  0  0  0
 10 11  1  0  0  0  0
 11 12  1  0  0  0  0
 12 13  1  0  0  0  0
 13 14  1  0  0  0  0
 14 15  1  0  0  0  0
 15 16  1  0  0  0  0
 16 17  1  0  0  0  0
 17 18  1  0  0  0  0
 18 19  1  0  0  0  0
 19 20  1  0  0  0  0
 20 21  1  0  0  0  0
 21 22  1  0  0  0  0
 22 23  1  0  0  0  0
 23 24  1  0  0  0  0
 24 25  1  0  0  0  0
 25 26  1  0  0  0  0
 26 27  1  0  0  0  0
 27 28  1  0  0  0  0
 28 29  1  0  0  0  0
 29 30  1  0  0  0  0
 30 31  1  0  0  0  0
 31 32  1  0  0  0  0
 32 33  1  0  0  0  0
 33 34  1  0  0  0  0
 34 35  1  0  0  0  0
 35 36  1  0  0  0  0
 36 37  1  0  0  0  0
 37 38  1  0  0  0  0
 38 39  1  0  0  0  0
 39 40  1  0  0  0  0
 40 41  1  0  0  0  0
 41 42  1  0  0  0  0
 42 43  1  0  0  0  0
 43 44  1  0  0  0  0
 44 45  1  0  0  0  0
 45 46  1  0  0  0  0
 46 47  1  0  0  0  0
 47 48  1  0  0  0  0
 48 49  1  0  0  0  0
 49 50  1  0  0  0  0
 50 51  1  0  0  0  0
 51 52  1  0  0  0  0
 52 53  1  0  0  0  0
 53 54  1  0  0  0  0
 54 55  1  0  0  0  0
 55 56  1  0  0  0  0
 56 57  1  0  0  0  0
 57 58  1  0  0  0  0
 58 59  1  0  0  0  0
 59 60  1  0  0  0  0
 60 61  1  0  0  0  0
 61 62  1  0  0  0  0
 62 63  1  0  0  0  0
 63 64  1  0  0  0  0
 64 65  1  0  0  0  0
 65 66  1  0  0  0  0
 66 67  1  0  0  0  0
 67 68  1  0  0  0  0
 68 69  1  0  0  0  0
 69 70  1  0  0  0  0
 70 71  1  0  0  0  0
 71 72  1  0  0  0  0
 72 73  1  0  0  0  0
 72 88  1  0  0  0  0
 72 89  1  0  0  0  0
 73 74  1  0  0  0  0
 73 90  1  0  0  0  0
 73 91  1  0  0  0  0
 74 75  1  0  0  0  0
 74 92  1  0  0  0  0
 74 93  1  0  0  0  0
 75 76  1  0  0  0  0
 75 94  1  0  0  0  0
 75 95  1  0  0  0  0
 76 77  1  0  0  0  0
 76 96  1  0  0  0  0
 76 97  1  0  0  0  0
 77 78  1  0  0  0  0
 77 98  1  0  0  0  0
 77 99  1  0  0  0  0
 78 79  1  0  0  0  0
 78100  1  0  0  0  0
 78101  1  0  0  0  0
 79102  1  0  0  0  0
 79103  1  0  0  0  0
 79104  1  0  0  0  0
M  END
$$$$
