
 OpenBabel04232216503D

 55 56  0  0  0  0  0  0  0  0999 V2000
    5.7838    0.5699   -2.6552 C   0  0  0  0  0  0  0  0  0  0  0  0
    6.9076   -0.4125   -2.3373 C   0  0  0  0  0  0  0  0  0  0  0  0
    6.8020   -1.3632   -1.4705 N   0  0  0  0  0  0  0  0  0  0  0  0
    5.6481   -1.4625   -0.6739 C   0  0  0  0  0  0  0  0  0  0  0  0
    5.7709   -0.4853    0.5389 C   0  0  0  0  0  0  0  0  0  0  0  0
    4.6205    0.4255    1.0361 C   0  0  0  0  0  0  0  0  0  0  0  0
    3.5327   -0.2650    1.8621 C   0  0  0  0  0  0  0  0  0  0  0  0
    2.5720    0.7407    2.5378 C   0  0  0  0  0  0  0  0  0  0  0  0
    1.5086    0.0011    3.3602 C   0  0  0  0  0  0  0  0  0  0  0  0
    0.5031    0.9294    4.0533 C   0  0  0  0  0  0  0  0  0  0  0  0
   -0.5275    0.1065    4.8386 C   0  0  0  0  0  0  0  0  0  0  0  0
   -1.5625    0.9836    5.5432 C   0  0  0  0  0  0  0  0  0  0  0  0
   -2.5720    0.1396    6.3097 C   0  0  0  0  0  0  0  0  0  0  0  0
    5.2730   -2.7441   -0.3884 C   0  0  0  0  0  0  0  0  0  0  0  0
    6.4002   -3.6794   -0.1983 C   0  0  0  0  0  0  0  0  0  0  0  0
    6.9344   -4.4497   -1.1669 C   0  0  0  0  0  0  0  0  0  0  0  0
    8.3635   -4.7570   -1.1143 C   0  0  0  0  0  0  0  0  0  0  0  0
    9.0270   -5.3257   -2.1407 C   0  0  0  0  0  0  0  0  0  0  0  0
   10.1367   -4.4261   -2.5698 C   0  0  0  0  0  0  0  0  0  0  0  0
   11.3178   -4.6085   -2.3127 O   0  0  0  0  0  0  0  0  0  0  0  0
    9.4983   -3.3889   -3.2025 N   0  0  0  0  0  0  0  0  0  0  0  0
    9.6961   -2.2371   -2.6857 C   0  0  0  0  0  0  0  0  0  0  0  0
   10.8885   -1.6222   -2.0906 C   0  0  0  0  0  0  0  0  0  0  0  0
   10.5899   -0.4784   -2.7736 C   0  0  0  0  0  0  0  0  0  0  0  0
    9.1675   -0.8843   -2.8910 C   0  0  0  0  0  0  0  0  0  0  0  0
    8.1443   -0.1090   -2.8621 N   0  0  0  0  0  0  0  0  0  0  0  0
    5.1608    0.1904   -3.4690 H   0  0  0  0  0  0  0  0  0  0  0  0
    6.1793    1.5547   -2.9153 H   0  0  0  0  0  0  0  0  0  0  0  0
    5.1233    0.7204   -1.7981 H   0  0  0  0  0  0  0  0  0  0  0  0
    6.5706    0.2224    0.2747 H   0  0  0  0  0  0  0  0  0  0  0  0
    6.1695   -1.0424    1.3947 H   0  0  0  0  0  0  0  0  0  0  0  0
    4.1689    0.9946    0.2169 H   0  0  0  0  0  0  0  0  0  0  0  0
    5.0938    1.1722    1.6919 H   0  0  0  0  0  0  0  0  0  0  0  0
    4.0046   -0.8717    2.6439 H   0  0  0  0  0  0  0  0  0  0  0  0
    2.9596   -0.9400    1.2186 H   0  0  0  0  0  0  0  0  0  0  0  0
    2.0860    1.3654    1.7785 H   0  0  0  0  0  0  0  0  0  0  0  0
    3.1353    1.4157    3.1954 H   0  0  0  0  0  0  0  0  0  0  0  0
    2.0077   -0.6118    4.1206 H   0  0  0  0  0  0  0  0  0  0  0  0
    0.9634   -0.6843    2.7007 H   0  0  0  0  0  0  0  0  0  0  0  0
   -0.0108    1.5477    3.3077 H   0  0  0  0  0  0  0  0  0  0  0  0
    1.0278    1.6095    4.7351 H   0  0  0  0  0  0  0  0  0  0  0  0
   -0.0096   -0.5112    5.5830 H   0  0  0  0  0  0  0  0  0  0  0  0
   -1.0415   -0.5805    4.1549 H   0  0  0  0  0  0  0  0  0  0  0  0
   -2.0942    1.5986    4.8082 H   0  0  0  0  0  0  0  0  0  0  0  0
   -1.0628    1.6660    6.2401 H   0  0  0  0  0  0  0  0  0  0  0  0
   -3.1124   -0.5344    5.6368 H   0  0  0  0  0  0  0  0  0  0  0  0
   -3.3061    0.7809    6.8076 H   0  0  0  0  0  0  0  0  0  0  0  0
   -2.0769   -0.4665    7.0755 H   0  0  0  0  0  0  0  0  0  0  0  0
    4.5480   -3.1809   -1.0836 H   0  0  0  0  0  0  0  0  0  0  0  0
    6.9849   -3.4573    0.6923 H   0  0  0  0  0  0  0  0  0  0  0  0
    6.4301   -4.5508   -2.1303 H   0  0  0  0  0  0  0  0  0  0  0  0
    8.9211   -4.1052   -0.4324 H   0  0  0  0  0  0  0  0  0  0  0  0
    8.5202   -5.8215   -2.9620 H   0  0  0  0  0  0  0  0  0  0  0  0
   11.7734   -1.9886   -1.5906 H   0  0  0  0  0  0  0  0  0  0  0  0
   11.1528    0.4302   -2.9466 H   0  0  0  0  0  0  0  0  0  0  0  0
  1  2  1  0  0  0  0
  1 27  1  0  0  0  0
  1 28  1  0  0  0  0
  1 29  1  0  0  0  0
  2  3  2  3  0  0  0
  2 26  1  0  0  0  0
  3  4  1  0  0  0  0
  4  5  1  0  0  0  0
  4 14  2  3  0  0  0
  5  6  1  0  0  0  0
  5 30  1  0  0  0  0
  5 31  1  0  0  0  0
  6  7  1  0  0  0  0
  6 32  1  0  0  0  0
  6 33  1  0  0  0  0
  7  8  1  0  0  0  0
  7 34  1  0  0  0  0
  7 35  1  0  0  0  0
  8  9  1  0  0  0  0
  8 36  1  0  0  0  0
  8 37  1  0  0  0  0
  9 10  1  0  0  0  0
  9 38  1  0  0  0  0
  9 39  1  0  0  0  0
 10 11  1  0  0  0  0
 10 40  1  0  0  0  0
 10 41  1  0  0  0  0
 11 12  1  0  0  0  0
 11 42  1  0  0  0  0
 11 43  1  0  0  0  0
 12 13  1  0  0  0  0
 12 44  1  0  0  0  0
 12 45  1  0  0  0  0
 13 46  1  0  0  0  0
 13 47  1  0  0  0  0
 13 48  1  0  0  0  0
 14 15  1  0  0  0  0
 14 49  1  0  0  0  0
 15 16  2  3  0  0  0
 15 50  1  0  0  0  0
 16 17  1  0  0  0  0
 16 51  1  0  0  0  0
 17 18  2  3  0  0  0
 17 52  1  0  0  0  0
 18 19  1  0  0  0  0
 18 53  1  0  0  0  0
 19 20  2  0  0  0  0
 19 21  1  0  0  0  0
 21 22  2  3  0  0  0
 22 23  1  0  0  0  0
 22 25  1  0  0  0  0
 23 24  2  0  0  0  0
 23 54  1  0  0  0  0
 24 25  1  0  0  0  0
 24 55  1  0  0  0  0
 25 26  2  3  0  0  0
M  END
$$$$
