
 OpenBabel04232216443D

 57 59  0  0  0  0  0  0  0  0999 V2000
    3.7475    0.7173    1.0096 C   0  0  0  0  0  0  0  0  0  0  0  0
    5.2770    0.7610    1.0504 C   0  0  0  0  0  0  0  0  0  0  0  0
    5.7920   -0.7317    1.2016 C   0  0  0  0  0  0  0  0  0  0  0  0
    6.1173   -1.3357    2.4330 C   0  0  0  0  0  0  0  0  0  0  0  0
    6.2980   -2.8646    3.0981 C   0  0  0  0  0  0  0  0  0  0  0  0
    7.6272   -3.6015    3.7684 C   0  0  0  0  0  0  0  0  0  0  0  0
    8.7801   -3.1952    2.9040 C   0  0  0  0  0  0  0  0  0  0  0  0
   10.3080   -3.3756    2.9012 C   0  0  0  0  0  0  0  0  0  0  0  0
   10.6116   -2.7734    1.5648 N   0  0  0  0  0  0  0  0  0  0  0  0
   11.5344   -1.7914    1.3278 N   0  0  0  0  0  0  0  0  0  0  0  0
   11.0818   -1.0765    0.3693 C   0  0  0  0  0  0  0  0  0  0  0  0
   12.0478   -0.0292   -0.0518 C   0  0  0  0  0  0  0  0  0  0  0  0
   10.9196    0.0149   -0.5891 C   0  0  0  0  0  0  0  0  0  0  0  0
    9.8699    0.4984   -1.4650 C   0  0  0  0  0  0  0  0  0  0  0  0
   10.4647    1.5415   -2.3880 C   0  0  0  0  0  0  0  0  0  0  0  0
    8.5873    0.0622   -1.2776 C   0  0  0  0  0  0  0  0  0  0  0  0
    8.4124   -0.5464    0.0594 C   0  0  0  0  0  0  0  0  0  0  0  0
    5.8457   -1.4052   -0.1907 C   0  0  0  0  0  0  0  0  0  0  0  0
    6.1446   -2.8693   -0.2565 C   0  0  0  0  0  0  0  0  0  0  0  0
    5.9305   -0.6800   -1.3660 C   0  0  0  0  0  0  0  0  0  0  0  0
    7.1932    0.1567   -1.9002 C   0  0  0  0  0  0  0  0  0  0  0  0
    6.8090    1.1176   -2.7701 C   0  0  0  0  0  0  0  0  0  0  0  0
    7.4566    2.3535   -3.0953 C   0  0  0  0  0  0  0  0  0  0  0  0
    7.7193    3.2957   -2.1740 C   0  0  0  0  0  0  0  0  0  0  0  0
    7.7850    3.1352   -0.7120 C   0  0  0  0  0  0  0  0  0  0  0  0
    7.1343    2.5207    0.3027 C   0  0  0  0  0  0  0  0  0  0  0  0
    5.8136    1.9144    0.5131 C   0  0  0  0  0  0  0  0  0  0  0  0
    3.3471    1.4139    0.2605 H   0  0  0  0  0  0  0  0  0  0  0  0
    3.3158    0.9718    1.9799 H   0  0  0  0  0  0  0  0  0  0  0  0
    3.3786   -0.2684    0.7061 H   0  0  0  0  0  0  0  0  0  0  0  0
    6.1951   -0.6388    3.2730 H   0  0  0  0  0  0  0  0  0  0  0  0
    5.6084   -2.8540    3.9577 H   0  0  0  0  0  0  0  0  0  0  0  0
    5.8687   -3.6021    2.4108 H   0  0  0  0  0  0  0  0  0  0  0  0
    7.4911   -4.7023    3.7476 H   0  0  0  0  0  0  0  0  0  0  0  0
    7.7672   -3.3588    4.8311 H   0  0  0  0  0  0  0  0  0  0  0  0
    8.6753   -2.1095    2.9354 H   0  0  0  0  0  0  0  0  0  0  0  0
    8.4554   -3.6274    1.9508 H   0  0  0  0  0  0  0  0  0  0  0  0
   10.6393   -4.4214    2.8833 H   0  0  0  0  0  0  0  0  0  0  0  0
   10.8030   -2.8530    3.7275 H   0  0  0  0  0  0  0  0  0  0  0  0
    9.7083   -2.4457    1.2064 H   0  0  0  0  0  0  0  0  0  0  0  0
   13.0133    0.3662    0.1080 H   0  0  0  0  0  0  0  0  0  0  0  0
   11.5240    1.3990   -2.5210 H   0  0  0  0  0  0  0  0  0  0  0  0
   10.4131    2.5078   -1.8625 H   0  0  0  0  0  0  0  0  0  0  0  0
    9.9995    1.6560   -3.3737 H   0  0  0  0  0  0  0  0  0  0  0  0
    9.1076   -0.3687    0.8621 H   0  0  0  0  0  0  0  0  0  0  0  0
    8.2688   -1.6127   -0.0651 H   0  0  0  0  0  0  0  0  0  0  0  0
    7.6421    0.0370    0.5159 H   0  0  0  0  0  0  0  0  0  0  0  0
    5.2753   -3.4524    0.0544 H   0  0  0  0  0  0  0  0  0  0  0  0
    6.9862   -3.1335    0.3823 H   0  0  0  0  0  0  0  0  0  0  0  0
    6.4115   -3.1657   -1.2764 H   0  0  0  0  0  0  0  0  0  0  0  0
    5.1379    0.0886   -1.4098 H   0  0  0  0  0  0  0  0  0  0  0  0
    5.7910    1.1328   -3.1812 H   0  0  0  0  0  0  0  0  0  0  0  0
    7.6698    2.5311   -4.1518 H   0  0  0  0  0  0  0  0  0  0  0  0
    8.2292    4.1867   -2.5632 H   0  0  0  0  0  0  0  0  0  0  0  0
    8.7129    3.6283   -0.4083 H   0  0  0  0  0  0  0  0  0  0  0  0
    7.6657    2.5982    1.2540 H   0  0  0  0  0  0  0  0  0  0  0  0
    5.0821    2.6749    0.2101 H   0  0  0  0  0  0  0  0  0  0  0  0
  1  2  1  0  0  0  0
  1 28  1  0  0  0  0
  1 29  1  0  0  0  0
  1 30  1  0  0  0  0
  2  3  1  0  0  0  0
  2 27  2  3  0  0  0
  3  4  2  3  0  0  0
  3 18  1  0  0  0  0
  4  5  1  0  0  0  0
  4 31  1  0  0  0  0
  5  6  1  0  0  0  0
  5 32  1  0  0  0  0
  5 33  1  0  0  0  0
  6  7  1  0  0  0  0
  6 34  1  0  0  0  0
  6 35  1  0  0  0  0
  7  8  1  0  0  0  0
  7 36  1  0  0  0  0
  7 37  1  0  0  0  0
  8  9  1  0  0  0  0
  8 38  1  0  0  0  0
  8 39  1  0  0  0  0
  9 10  1  0  0  0  0
  9 40  1  0  0  0  0
 10 11  2  3  0  0  0
 11 12  1  0  0  0  0
 11 13  1  0  0  0  0
 12 13  2  0  0  0  0
 12 41  1  0  0  0  0
 13 14  1  0  0  0  0
 14 15  1  0  0  0  0
 14 16  2  3  0  0  0
 15 42  1  0  0  0  0
 15 43  1  0  0  0  0
 15 44  1  0  0  0  0
 16 17  1  0  0  0  0
 16 21  1  0  0  0  0
 17 45  1  0  0  0  0
 17 46  1  0  0  0  0
 17 47  1  0  0  0  0
 18 19  1  0  0  0  0
 18 20  2  3  0  0  0
 19 48  1  0  0  0  0
 19 49  1  0  0  0  0
 19 50  1  0  0  0  0
 20 21  1  0  0  0  0
 20 51  1  0  0  0  0
 21 22  2  3  0  0  0
 22 23  1  0  0  0  0
 22 52  1  0  0  0  0
 23 24  2  3  0  0  0
 23 53  1  0  0  0  0
 24 25  1  0  0  0  0
 24 54  1  0  0  0  0
 25 26  2  3  0  0  0
 25 55  1  0  0  0  0
 26 27  1  0  0  0  0
 26 56  1  0  0  0  0
 27 57  1  0  0  0  0
M  END
$$$$
