
 OpenBabel04232216453D

 61 62  0  0  1  0  0  0  0  0999 V2000
    3.0298   -1.4942    3.0462 C   0  0  0  0  0  0  0  0  0  0  0  0
    4.2972   -2.0836    2.4064 C   0  0  3  0  0  0  0  0  0  0  0  0
    3.7840   -2.3176    0.9634 C   0  0  0  0  0  0  0  0  0  0  0  0
    4.5567   -2.0939   -0.1295 C   0  0  0  0  0  0  0  0  0  0  0  0
    5.0432   -0.6961   -0.4243 C   0  0  0  0  0  0  0  0  0  0  0  0
    5.4342   -3.3059   -0.4367 C   0  0  3  0  0  0  0  0  0  0  0  0
    4.9178   -4.6006   -1.0498 C   0  0  0  0  0  0  0  0  0  0  0  0
    6.9242   -3.0099   -0.5071 C   0  0  0  0  0  3  0  0  0  0  0  0
    7.4399   -3.3505    0.8295 C   0  0  0  0  0  0  0  0  0  0  0  0
    8.6560   -3.0770    1.6107 C   0  0  0  0  0  0  0  0  0  0  0  0
    9.7011   -2.6284    1.1702 O   0  0  0  0  0  0  0  0  0  0  0  0
    8.4506   -3.4815    3.0639 C   0  0  0  0  0  0  0  0  0  0  0  0
    7.2425   -3.7736    3.6223 C   0  0  0  0  0  0  0  0  0  0  0  0
    5.7221   -4.0398    3.3305 C   0  0  0  0  0  0  0  0  0  0  0  0
    5.4767   -5.5918    3.4486 C   0  0  0  0  0  0  0  0  0  0  0  0
    5.4752   -6.3677    4.7854 C   0  0  0  0  0  0  0  0  0  0  0  0
    6.7128   -6.3572    5.7143 C   0  0  0  0  0  0  0  0  0  0  0  0
    6.5566   -5.3608    6.8868 C   0  0  0  0  0  0  0  0  0  0  0  0
    7.7951   -5.2205    7.8113 C   0  0  0  0  0  0  0  0  0  0  0  0
    8.1809   -3.7501    8.1554 C   0  0  0  0  0  0  0  0  0  0  0  0
    9.4703   -3.2540    7.4497 C   0  0  0  0  0  0  0  0  0  0  0  0
    9.1874   -3.2519    5.9549 C   0  0  0  0  0  0  0  0  0  0  0  0
   10.2653   -3.1011    4.9350 C   0  0  0  0  0  0  0  0  0  0  0  0
    9.8014   -3.8826    3.6950 C   0  0  0  0  0  0  0  0  0  0  0  0
    4.6853   -3.4039    2.9430 N   0  0  0  0  0  0  0  0  0  0  0  0
    2.1260   -2.0790    2.8058 H   0  0  0  0  0  0  0  0  0  0  0  0
    2.8362   -0.4880    2.6360 H   0  0  0  0  0  0  0  0  0  0  0  0
    3.0913   -1.4116    4.1220 H   0  0  0  0  0  0  0  0  0  0  0  0
    5.1219   -1.3712    2.4603 H   0  0  0  0  0  0  0  0  0  0  0  0
    3.2370   -3.2673    0.9629 H   0  0  0  0  0  0  0  0  0  0  0  0
    4.1952   -0.0652   -0.7193 H   0  0  0  0  0  0  0  0  0  0  0  0
    5.7461   -0.6641   -1.2615 H   0  0  0  0  0  0  0  0  0  0  0  0
    5.5224   -0.2333    0.4446 H   0  0  0  0  0  0  0  0  0  0  0  0
    5.3773   -3.7544    0.5653 H   0  0  0  0  0  0  0  0  0  0  0  0
    5.1161   -4.6915   -2.1082 H   0  0  0  0  0  0  0  0  0  0  0  0
    3.8521   -4.7363   -0.8359 H   0  0  0  0  0  0  0  0  0  0  0  0
    5.4250   -5.4494   -0.5380 H   0  0  0  0  0  0  0  0  0  0  0  0
    7.3536   -2.1868   -1.0649 H   0  0  0  0  0  0  0  0  0  0  0  0
    7.2787   -4.4314    0.9531 H   0  0  0  0  0  0  0  0  0  0  0  0
    6.7732   -2.7375    1.4452 H   0  0  0  0  0  0  0  0  0  0  0  0
    7.2986   -4.1012    4.6512 H   0  0  0  0  0  0  0  0  0  0  0  0
    6.2089   -6.0647    2.7793 H   0  0  0  0  0  0  0  0  0  0  0  0
    4.5020   -5.7919    2.9743 H   0  0  0  0  0  0  0  0  0  0  0  0
    5.3450   -7.4195    4.4872 H   0  0  0  0  0  0  0  0  0  0  0  0
    4.5761   -6.1183    5.3580 H   0  0  0  0  0  0  0  0  0  0  0  0
    7.6323   -6.2003    5.1426 H   0  0  0  0  0  0  0  0  0  0  0  0
    6.8141   -7.3596    6.1538 H   0  0  0  0  0  0  0  0  0  0  0  0
    5.7230   -5.7157    7.5059 H   0  0  0  0  0  0  0  0  0  0  0  0
    6.2461   -4.3881    6.4978 H   0  0  0  0  0  0  0  0  0  0  0  0
    8.6576   -5.7656    7.4096 H   0  0  0  0  0  0  0  0  0  0  0  0
    7.5494   -5.7152    8.7595 H   0  0  0  0  0  0  0  0  0  0  0  0
    8.3314   -3.6586    9.2339 H   0  0  0  0  0  0  0  0  0  0  0  0
    7.3536   -3.0741    7.8974 H   0  0  0  0  0  0  0  0  0  0  0  0
   10.3070   -3.9222    7.6806 H   0  0  0  0  0  0  0  0  0  0  0  0
    9.7354   -2.2478    7.7901 H   0  0  0  0  0  0  0  0  0  0  0  0
    8.4000   -2.4969    5.7732 H   0  0  0  0  0  0  0  0  0  0  0  0
    8.7753   -4.2380    5.8020 H   0  0  0  0  0  0  0  0  0  0  0  0
   11.2092   -3.5247    5.2949 H   0  0  0  0  0  0  0  0  0  0  0  0
   10.4433   -2.0530    4.6768 H   0  0  0  0  0  0  0  0  0  0  0  0
    9.7249   -4.9512    3.9672 H   0  0  0  0  0  0  0  0  0  0  0  0
   10.6156   -3.8821    2.9607 H   0  0  0  0  0  0  0  0  0  0  0  0
  1  2  1  0  0  0  0
  1 26  1  0  0  0  0
  1 27  1  0  0  0  0
  1 28  1  0  0  0  0
  2  3  1  0  0  0  0
  2 25  1  0  0  0  0
  2 29  1  0  0  0  0
  3  4  2  3  0  0  0
  3 30  1  0  0  0  0
  4  5  1  0  0  0  0
  4  6  1  0  0  0  0
  5 31  1  0  0  0  0
  5 32  1  0  0  0  0
  5 33  1  0  0  0  0
  6  7  1  0  0  0  0
  6  8  1  0  0  0  0
  6 34  1  0  0  0  0
  7 35  1  0  0  0  0
  7 36  1  0  0  0  0
  7 37  1  0  0  0  0
  8  9  1  0  0  0  0
  8 38  1  0  0  0  0
  9 10  1  0  0  0  0
  9 39  1  0  0  0  0
  9 40  1  0  0  0  0
 10 11  2  0  0  0  0
 10 12  1  0  0  0  0
 12 13  2  3  0  0  0
 12 24  1  0  0  0  0
 13 14  1  0  0  0  0
 13 41  1  0  0  0  0
 14 15  1  0  0  0  0
 14 25  2  3  0  0  0
 15 16  1  0  0  0  0
 15 42  1  0  0  0  0
 15 43  1  0  0  0  0
 16 17  1  0  0  0  0
 16 44  1  0  0  0  0
 16 45  1  0  0  0  0
 17 18  1  0  0  0  0
 17 46  1  0  0  0  0
 17 47  1  0  0  0  0
 18 19  1  0  0  0  0
 18 48  1  0  0  0  0
 18 49  1  0  0  0  0
 19 20  1  0  0  0  0
 19 50  1  0  0  0  0
 19 51  1  0  0  0  0
 20 21  1  0  0  0  0
 20 52  1  0  0  0  0
 20 53  1  0  0  0  0
 21 22  1  0  0  0  0
 21 54  1  0  0  0  0
 21 55  1  0  0  0  0
 22 23  1  0  0  0  0
 22 56  1  0  0  0  0
 22 57  1  0  0  0  0
 23 24  1  0  0  0  0
 23 58  1  0  0  0  0
 23 59  1  0  0  0  0
 24 60  1  0  0  0  0
 24 61  1  0  0  0  0
M  END
$$$$
