
 OpenBabel04232216493D

 26 26  0  0  1  0  0  0  0  0999 V2000
    3.5600    1.3443   -0.0857 C   0  0  0  0  0  0  0  0  0  0  0  0
    4.6193    0.7077    0.8289 C   0  0  3  0  0  0  0  0  0  0  0  0
    3.8735    0.0978    2.0598 C   0  0  0  0  0  0  0  0  0  0  0  0
    4.6626   -1.0419    2.6243 C   0  0  0  0  0  0  0  0  0  0  0  0
    5.1184   -1.0501    3.8899 C   0  0  0  0  0  0  0  0  0  0  0  0
    6.4757   -1.5642    4.1150 C   0  0  0  0  0  0  0  0  0  0  0  0
    7.3588   -0.6177    4.5233 C   0  0  0  0  0  0  0  0  0  0  0  0
    7.9774    0.0709    3.3794 C   0  0  0  0  0  0  0  0  0  0  0  0
    7.3496    1.1742    2.9189 C   0  0  0  0  0  0  0  0  0  0  0  0
    7.1504    1.4232    1.4543 C   0  0  0  0  0  0  0  0  0  0  0  0
    5.7080    1.7402    1.1198 C   0  0  0  0  0  3  0  0  0  0  0  0
    2.7901    0.6114   -0.3543 H   0  0  0  0  0  0  0  0  0  0  0  0
    4.0067    1.7032   -1.0188 H   0  0  0  0  0  0  0  0  0  0  0  0
    3.0625    2.1877    0.4060 H   0  0  0  0  0  0  0  0  0  0  0  0
    5.0838   -0.0993    0.2426 H   0  0  0  0  0  0  0  0  0  0  0  0
    2.8951   -0.2953    1.7539 H   0  0  0  0  0  0  0  0  0  0  0  0
    3.6904    0.8683    2.7992 H   0  0  0  0  0  0  0  0  0  0  0  0
    5.0755   -1.7325    1.8872 H   0  0  0  0  0  0  0  0  0  0  0  0
    4.7457   -0.3164    4.6045 H   0  0  0  0  0  0  0  0  0  0  0  0
    6.8026   -2.2104    3.2904 H   0  0  0  0  0  0  0  0  0  0  0  0
    7.0287    0.0811    5.2988 H   0  0  0  0  0  0  0  0  0  0  0  0
    8.5662   -0.5549    2.7137 H   0  0  0  0  0  0  0  0  0  0  0  0
    6.7322    1.7702    3.5895 H   0  0  0  0  0  0  0  0  0  0  0  0
    7.4771    0.5636    0.8584 H   0  0  0  0  0  0  0  0  0  0  0  0
    7.7742    2.2744    1.1596 H   0  0  0  0  0  0  0  0  0  0  0  0
    5.5549    2.7404    0.7196 H   0  0  0  0  0  0  0  0  0  0  0  0
  1  2  1  0  0  0  0
  1 12  1  0  0  0  0
  1 13  1  0  0  0  0
  1 14  1  0  0  0  0
  2  3  1  0  0  0  0
  2 11  1  0  0  0  0
  2 15  1  0  0  0  0
  3  4  1  0  0  0  0
  3 16  1  0  0  0  0
  3 17  1  0  0  0  0
  4  5  2  3  0  0  0
  4 18  1  0  0  0  0
  5  6  1  0  0  0  0
  5 19  1  0  0  0  0
  6  7  2  3  0  0  0
  6 20  1  0  0  0  0
  7  8  1  0  0  0  0
  7 21  1  0  0  0  0
  8  9  2  3  0  0  0
  8 22  1  0  0  0  0
  9 10  1  0  0  0  0
  9 23  1  0  0  0  0
 10 11  1  0  0  0  0
 10 24  1  0  0  0  0
 10 25  1  0  0  0  0
 11 26  1  0  0  0  0
M  END
$$$$
