
 OpenBabel04232216463D

 62 64  0  0  0  0  0  0  0  0999 V2000
    0.1919    0.8641   -1.2666 C   0  0  0  0  0  0  0  0  0  0  0  0
    0.9973    0.8271   -2.5801 C   0  0  0  0  0  0  0  0  0  0  0  0
    2.2389    0.1681   -2.3434 C   0  0  0  0  0  0  0  0  0  0  0  0
    3.7918    0.4139   -1.6876 C   0  0  0  0  0  0  0  0  0  0  0  0
    4.1307   -0.1058   -0.1601 C   0  0  0  0  0  0  0  0  0  0  0  0
    4.4531    0.9625    0.9352 C   0  0  0  0  0  0  0  0  0  0  0  0
    3.2450    1.4987    1.7076 C   0  0  0  0  0  0  0  0  0  0  0  0
    2.9144    0.7490    3.0039 C   0  0  0  0  0  0  0  0  0  0  0  0
    2.4828   -0.7009    2.8245 C   0  0  0  0  0  0  0  0  0  0  0  0
    3.4206   -1.5597    1.9719 C   0  0  0  0  0  0  0  0  0  0  0  0
    3.3166   -1.2909    0.4410 C   0  0  0  0  0  0  0  0  0  0  0  0
    4.9072    0.6753   -2.5258 C   0  0  0  0  0  0  0  0  0  0  0  0
    6.4748    0.6564   -2.4149 C   0  0  0  0  0  0  0  0  0  0  0  0
    7.4875    0.3392   -1.3667 C   0  0  0  0  0  0  0  0  0  0  0  0
    6.9887    0.9106   -3.6554 C   0  0  0  0  0  0  0  0  0  0  0  0
    8.3619    0.9173   -4.2675 C   0  0  0  0  0  0  0  0  0  0  0  0
    5.9353    1.1541   -4.5675 C   0  0  0  0  0  0  0  0  0  0  0  0
    4.7588    1.0235   -3.9548 C   0  0  0  0  0  0  0  0  0  0  0  0
    3.6403    0.8631   -4.8297 C   0  0  0  0  0  0  0  0  0  0  0  0
    3.3382    1.4853   -5.9480 C   0  0  0  0  0  0  0  0  0  0  0  0
    2.1853    1.0053   -6.5034 C   0  0  0  0  0  0  0  0  0  0  0  0
    1.7894    0.7176   -7.7492 C   0  0  0  0  0  0  0  0  0  0  0  0
    0.5705   -0.1138   -7.7799 C   0  0  0  0  0  0  0  0  0  0  0  0
   -0.5221    0.4732   -7.2471 C   0  0  0  0  0  0  0  0  0  0  0  0
   -0.8356    0.0385   -5.8546 C   0  0  0  0  0  0  0  0  0  0  0  0
   -0.6797    0.9283   -4.8205 C   0  0  0  0  0  0  0  0  0  0  0  0
   -1.9850    1.8008   -4.8260 C   0  0  0  0  0  0  0  0  0  0  0  0
   -0.0565    0.3067   -3.5822 O   0  0  0  0  0  0  0  0  0  0  0  0
   -0.8797    0.7185   -1.4753 H   0  0  0  0  0  0  0  0  0  0  0  0
    0.3035    1.7823   -0.6949 H   0  0  0  0  0  0  0  0  0  0  0  0
    0.4535   -0.0017   -0.6417 H   0  0  0  0  0  0  0  0  0  0  0  0
    2.2286   -0.8806   -2.6585 H   0  0  0  0  0  0  0  0  0  0  0  0
    5.1161   -0.5773   -0.2953 H   0  0  0  0  0  0  0  0  0  0  0  0
    5.0106    1.7962    0.4944 H   0  0  0  0  0  0  0  0  0  0  0  0
    5.1589    0.5301    1.6669 H   0  0  0  0  0  0  0  0  0  0  0  0
    2.3672    1.5274    1.0582 H   0  0  0  0  0  0  0  0  0  0  0  0
    3.4644    2.5337    1.9998 H   0  0  0  0  0  0  0  0  0  0  0  0
    2.0964    1.2808    3.5113 H   0  0  0  0  0  0  0  0  0  0  0  0
    3.7640    0.7940    3.6992 H   0  0  0  0  0  0  0  0  0  0  0  0
    1.4718   -0.7329    2.4024 H   0  0  0  0  0  0  0  0  0  0  0  0
    2.3978   -1.1499    3.8261 H   0  0  0  0  0  0  0  0  0  0  0  0
    3.1166   -2.6023    2.1435 H   0  0  0  0  0  0  0  0  0  0  0  0
    4.4498   -1.4980    2.3496 H   0  0  0  0  0  0  0  0  0  0  0  0
    2.2633   -1.1925    0.1815 H   0  0  0  0  0  0  0  0  0  0  0  0
    3.6805   -2.2049   -0.0475 H   0  0  0  0  0  0  0  0  0  0  0  0
    7.1296   -0.1536   -0.4683 H   0  0  0  0  0  0  0  0  0  0  0  0
    8.0310    1.2523   -1.0831 H   0  0  0  0  0  0  0  0  0  0  0  0
    8.2606   -0.3289   -1.7840 H   0  0  0  0  0  0  0  0  0  0  0  0
    9.1833    0.8160   -3.5529 H   0  0  0  0  0  0  0  0  0  0  0  0
    8.5294    1.8480   -4.8276 H   0  0  0  0  0  0  0  0  0  0  0  0
    8.4571    0.0986   -4.9968 H   0  0  0  0  0  0  0  0  0  0  0  0
    6.1007    1.2491   -5.6346 H   0  0  0  0  0  0  0  0  0  0  0  0
    3.0409   -0.0008   -4.5265 H   0  0  0  0  0  0  0  0  0  0  0  0
    3.9288    2.3170   -6.4026 H   0  0  0  0  0  0  0  0  0  0  0  0
    1.5075    0.6576   -5.7016 H   0  0  0  0  0  0  0  0  0  0  0  0
    2.3865    0.9066   -8.6373 H   0  0  0  0  0  0  0  0  0  0  0  0
    0.8081   -1.1289   -7.4455 H   0  0  0  0  0  0  0  0  0  0  0  0
   -0.6901    1.5276   -7.4748 H   0  0  0  0  0  0  0  0  0  0  0  0
   -1.8429   -0.3882   -5.9772 H   0  0  0  0  0  0  0  0  0  0  0  0
   -2.1188    2.2423   -5.8436 H   0  0  0  0  0  0  0  0  0  0  0  0
   -2.0412    2.6656   -4.1685 H   0  0  0  0  0  0  0  0  0  0  0  0
   -2.9002    1.1919   -4.7272 H   0  0  0  0  0  0  0  0  0  0  0  0
  1  2  1  0  0  0  0
  1 29  1  0  0  0  0
  1 30  1  0  0  0  0
  1 31  1  0  0  0  0
  2  3  2  3  0  0  0
  2 28  1  0  0  0  0
  3  4  1  0  0  0  0
  3 32  1  0  0  0  0
  4  5  1  0  0  0  0
  4 12  2  3  0  0  0
  5  6  1  0  0  0  0
  5 11  1  0  0  0  0
  5 33  1  0  0  0  0
  6  7  1  0  0  0  0
  6 34  1  0  0  0  0
  6 35  1  0  0  0  0
  7  8  1  0  0  0  0
  7 36  1  0  0  0  0
  7 37  1  0  0  0  0
  8  9  1  0  0  0  0
  8 38  1  0  0  0  0
  8 39  1  0  0  0  0
  9 10  1  0  0  0  0
  9 40  1  0  0  0  0
  9 41  1  0  0  0  0
 10 11  1  0  0  0  0
 10 42  1  0  0  0  0
 10 43  1  0  0  0  0
 11 44  1  0  0  0  0
 11 45  1  0  0  0  0
 12 13  1  0  0  0  0
 12 18  1  0  0  0  0
 13 14  1  0  0  0  0
 13 15  2  0  0  0  0
 14 46  1  0  0  0  0
 14 47  1  0  0  0  0
 14 48  1  0  0  0  0
 15 16  1  0  0  0  0
 15 17  1  0  0  0  0
 16 49  1  0  0  0  0
 16 50  1  0  0  0  0
 16 51  1  0  0  0  0
 17 18  2  0  0  0  0
 17 52  1  0  0  0  0
 18 19  1  0  0  0  0
 19 20  2  3  0  0  0
 19 53  1  0  0  0  0
 20 21  1  0  0  0  0
 20 54  1  0  0  0  0
 21 22  2  3  0  0  0
 21 55  1  0  0  0  0
 22 23  1  0  0  0  0
 22 56  1  0  0  0  0
 23 24  2  3  0  0  0
 23 57  1  0  0  0  0
 24 25  1  0  0  0  0
 24 58  1  0  0  0  0
 25 26  2  3  0  0  0
 25 59  1  0  0  0  0
 26 27  1  0  0  0  0
 26 28  1  0  0  0  0
 27 60  1  0  0  0  0
 27 61  1  0  0  0  0
 27 62  1  0  0  0  0
M  END
$$$$
