
 OpenBabel04232216483D

 66 67  0  0  0  0  0  0  0  0999 V2000
    7.0352    4.5724   -1.5866 C   0  0  0  0  0  0  0  0  0  0  0  0
    8.4694    3.9674   -1.7503 C   0  0  0  0  0  0  0  0  0  0  0  0
    8.0241    2.5785   -1.2828 C   0  0  0  0  0  0  0  0  0  0  0  0
    7.4281    1.6752   -0.4444 C   0  0  0  0  0  0  0  0  0  0  0  0
    7.1385    0.2488   -0.8690 C   0  0  0  0  0  0  0  0  0  0  0  0
    6.8402   -0.7811    0.1702 N   0  0  0  0  0  0  0  0  0  0  0  0
    7.5003   -1.3147    1.5166 C   0  0  0  0  0  0  0  0  0  0  0  0
    9.0690   -1.3269    1.7905 C   0  0  0  0  0  0  0  0  0  0  0  0
    9.5823   -0.4367    0.7334 C   0  0  0  0  0  0  0  0  0  0  0  0
   10.8305   -0.0878   -0.1054 C   0  0  0  0  0  0  0  0  0  0  0  0
   10.1044    0.4103   -1.3554 C   0  0  0  0  0  0  0  0  0  0  0  0
   10.3346    0.5529   -2.8237 C   0  0  0  0  0  0  0  0  0  0  0  0
    7.2228   -0.1118   -2.2289 C   0  0  0  0  0  0  0  0  0  0  0  0
    7.6681    0.6752   -3.5176 C   0  0  0  0  0  0  0  0  0  0  0  0
    6.6023    1.4895   -4.1122 N   0  0  0  0  0  0  0  0  0  0  0  0
    6.3059    1.9673   -5.4835 C   0  0  0  0  0  0  0  0  0  0  0  0
    9.0245    0.9315   -3.7299 C   0  0  0  0  0  0  0  0  0  0  0  0
    9.4218    1.8900   -4.7721 C   0  0  0  0  0  0  0  0  0  0  0  0
   10.6652    1.9418   -5.2414 C   0  0  0  0  0  0  0  0  0  0  0  0
   11.1722    2.8070   -6.2519 C   0  0  0  0  0  0  0  0  0  0  0  0
   12.4391    2.5727   -6.5944 C   0  0  0  0  0  0  0  0  0  0  0  0
   13.1640    3.3220   -7.5599 C   0  0  0  0  0  0  0  0  0  0  0  0
   14.4802    3.0964   -7.6717 C   0  0  0  0  0  0  0  0  0  0  0  0
   15.3101    4.2860   -7.7658 C   0  0  0  0  0  0  0  0  0  0  0  0
   15.4176    4.7447   -6.4902 C   0  0  0  0  0  0  0  0  0  0  0  0
   14.3879    5.6406   -5.8050 C   0  0  0  0  0  0  0  0  0  0  0  0
   13.4690    5.5559   -4.7437 C   0  0  0  0  0  0  0  0  0  0  0  0
   12.4757    4.5873   -3.8419 C   0  0  0  0  0  0  0  0  0  0  0  0
   11.3009    4.2418   -3.1109 C   0  0  0  0  0  0  0  0  0  0  0  0
    9.6872    4.3749   -2.4493 C   0  0  0  0  0  0  0  0  0  0  0  0
    6.7086    5.2990   -2.3249 H   0  0  0  0  0  0  0  0  0  0  0  0
    6.8561    4.8844   -0.5502 H   0  0  0  0  0  0  0  0  0  0  0  0
    6.2406    3.7872   -1.7169 H   0  0  0  0  0  0  0  0  0  0  0  0
    7.8862    2.2171   -2.2869 H   0  0  0  0  0  0  0  0  0  0  0  0
    7.1837    1.9555    0.5964 H   0  0  0  0  0  0  0  0  0  0  0  0
    5.9060   -0.5176    0.4919 H   0  0  0  0  0  0  0  0  0  0  0  0
    7.0216   -0.7989    2.3565 H   0  0  0  0  0  0  0  0  0  0  0  0
    7.1895   -2.3691    1.6181 H   0  0  0  0  0  0  0  0  0  0  0  0
    9.4855   -2.3452    1.7425 H   0  0  0  0  0  0  0  0  0  0  0  0
    9.2847   -0.9422    2.7928 H   0  0  0  0  0  0  0  0  0  0  0  0
    9.0732    0.5064    0.9543 H   0  0  0  0  0  0  0  0  0  0  0  0
    9.1018   -1.0638   -0.0129 H   0  0  0  0  0  0  0  0  0  0  0  0
   11.4488   -0.9464   -0.2602 H   0  0  0  0  0  0  0  0  0  0  0  0
   11.3905    0.7136    0.4087 H   0  0  0  0  0  0  0  0  0  0  0  0
    9.8102    1.3922   -1.0190 H   0  0  0  0  0  0  0  0  0  0  0  0
    9.3228   -0.3081   -1.4908 H   0  0  0  0  0  0  0  0  0  0  0  0
   10.8083   -0.3304   -3.2480 H   0  0  0  0  0  0  0  0  0  0  0  0
   11.0431    1.3798   -2.8513 H   0  0  0  0  0  0  0  0  0  0  0  0
    7.1171   -1.1724   -2.4790 H   0  0  0  0  0  0  0  0  0  0  0  0
    6.6730    2.3865   -3.6291 H   0  0  0  0  0  0  0  0  0  0  0  0
    5.9984    1.1778   -6.1673 H   0  0  0  0  0  0  0  0  0  0  0  0
    7.0755    2.5784   -5.9643 H   0  0  0  0  0  0  0  0  0  0  0  0
    5.4640    2.6796   -5.4157 H   0  0  0  0  0  0  0  0  0  0  0  0
    8.7265    2.6167   -5.1523 H   0  0  0  0  0  0  0  0  0  0  0  0
   11.4076    1.2699   -4.8282 H   0  0  0  0  0  0  0  0  0  0  0  0
   10.5679    3.5941   -6.6932 H   0  0  0  0  0  0  0  0  0  0  0  0
   13.0219    1.8533   -6.0166 H   0  0  0  0  0  0  0  0  0  0  0  0
   12.7189    4.2583   -7.8866 H   0  0  0  0  0  0  0  0  0  0  0  0
   14.9553    2.2431   -7.1779 H   0  0  0  0  0  0  0  0  0  0  0  0
   14.7966    4.9195   -8.5159 H   0  0  0  0  0  0  0  0  0  0  0  0
   16.4377    4.6162   -6.0478 H   0  0  0  0  0  0  0  0  0  0  0  0
   14.7040    6.6708   -6.0738 H   0  0  0  0  0  0  0  0  0  0  0  0
   14.2909    5.2504   -4.0392 H   0  0  0  0  0  0  0  0  0  0  0  0
   13.1756    3.7327   -3.7502 H   0  0  0  0  0  0  0  0  0  0  0  0
   11.6303    3.2924   -2.6574 H   0  0  0  0  0  0  0  0  0  0  0  0
    9.9982    3.3327   -2.2073 H   0  0  0  0  0  0  0  0  0  0  0  0
  1  2  1  0  0  0  0
  1 31  1  0  0  0  0
  1 32  1  0  0  0  0
  1 33  1  0  0  0  0
  2  3  1  0  0  0  0
  2 30  2  3  0  0  0
  3  4  2  3  0  0  0
  3 34  1  0  0  0  0
  4  5  1  0  0  0  0
  4 35  1  0  0  0  0
  5  6  1  0  0  0  0
  5 13  2  3  0  0  0
  6  7  1  0  0  0  0
  6 36  1  0  0  0  0
  7  8  1  0  0  0  0
  7 37  1  0  0  0  0
  7 38  1  0  0  0  0
  8  9  1  0  0  0  0
  8 39  1  0  0  0  0
  8 40  1  0  0  0  0
  9 10  1  0  0  0  0
  9 41  1  0  0  0  0
  9 42  1  0  0  0  0
 10 11  1  0  0  0  0
 10 43  1  0  0  0  0
 10 44  1  0  0  0  0
 11 12  1  0  0  0  0
 11 45  1  0  0  0  0
 11 46  1  0  0  0  0
 12 17  1  0  0  0  0
 12 47  1  0  0  0  0
 12 48  1  0  0  0  0
 13 14  1  0  0  0  0
 13 49  1  0  0  0  0
 14 15  1  0  0  0  0
 14 17  2  3  0  0  0
 15 16  1  0  0  0  0
 15 50  1  0  0  0  0
 16 51  1  0  0  0  0
 16 52  1  0  0  0  0
 16 53  1  0  0  0  0
 17 18  1  0  0  0  0
 18 19  2  3  0  0  0
 18 54  1  0  0  0  0
 19 20  1  0  0  0  0
 19 55  1  0  0  0  0
 20 21  2  3  0  0  0
 20 56  1  0  0  0  0
 21 22  1  0  0  0  0
 21 57  1  0  0  0  0
 22 23  2  3  0  0  0
 22 58  1  0  0  0  0
 23 24  1  0  0  0  0
 23 59  1  0  0  0  0
 24 25  2  3  0  0  0
 24 60  1  0  0  0  0
 25 26  1  0  0  0  0
 25 61  1  0  0  0  0
 26 27  2  3  0  0  0
 26 62  1  0  0  0  0
 27 28  1  0  0  0  0
 27 63  1  0  0  0  0
 28 29  2  3  0  0  0
 28 64  1  0  0  0  0
 29 30  1  0  0  0  0
 29 65  1  0  0  0  0
 30 66  1  0  0  0  0
M  END
$$$$
