
 OpenBabel04232216453D

 61 62  0  0  0  0  0  0  0  0999 V2000
   15.3847   -6.3217    0.2574 C   0  0  0  0  0  0  0  0  0  0  0  0
   14.1096   -5.6131    0.5254 C   0  0  0  0  0  0  0  0  0  0  0  0
   13.6696   -5.0596    1.7473 C   0  0  0  0  0  0  0  0  0  0  0  0
   12.4313   -4.5182    1.4789 C   0  0  0  0  0  0  0  0  0  0  0  0
   11.4763   -3.8029    2.3576 C   0  0  0  0  0  0  0  0  0  0  0  0
   12.2003   -4.7695    0.1503 N   0  0  0  0  0  0  0  0  0  0  0  0
   11.0414   -4.3726   -0.6321 C   0  0  0  0  0  0  0  0  0  0  0  0
    9.9447   -5.4278   -0.6257 C   0  0  0  0  0  0  0  0  0  0  0  0
    8.7206   -4.9711   -1.4299 C   0  0  0  0  0  0  0  0  0  0  0  0
    7.6423   -6.0517   -1.4314 C   0  0  0  0  0  0  0  0  0  0  0  0
    7.1671   -6.3633   -0.0211 C   0  0  0  0  0  0  0  0  0  0  0  0
    7.1660   -5.4891    0.8484 O   0  0  0  0  0  0  0  0  0  0  0  0
    6.7146   -7.6614    0.1888 N   0  0  0  0  0  0  0  0  0  0  0  0
    6.3070   -7.9563    1.5592 C   0  0  0  0  0  0  0  0  0  0  0  0
    7.3940   -8.7463    2.2993 C   0  0  0  0  0  0  0  0  0  0  0  0
    6.8100   -9.9533    3.0432 C   0  0  0  0  0  0  0  0  0  0  0  0
    7.5295  -11.2648    2.7035 C   0  0  0  0  0  0  0  0  0  0  0  0
    6.5947  -12.3020    2.0615 C   0  0  0  0  0  0  0  0  0  0  0  0
    7.0840  -12.7815    0.6879 C   0  0  0  0  0  0  0  0  0  0  0  0
    6.0471  -12.5707   -0.4265 C   0  0  0  0  0  0  0  0  0  0  0  0
    6.5818  -11.7141   -1.5866 C   0  0  0  0  0  0  0  0  0  0  0  0
    5.7383  -10.4570   -1.8444 C   0  0  0  0  0  0  0  0  0  0  0  0
    6.5392   -9.1497   -1.7610 C   0  0  0  0  0  0  0  0  0  0  0  0
    5.8820   -8.1879   -0.7788 C   0  0  0  0  0  0  0  0  0  0  0  0
    4.6795   -7.9637   -0.8197 O   0  0  0  0  0  0  0  0  0  0  0  0
   13.2084   -5.4360   -0.4489 N   0  0  0  0  0  0  0  0  0  0  0  0
   15.9981   -6.3848    1.1625 H   0  0  0  0  0  0  0  0  0  0  0  0
   15.9667   -5.7984   -0.5075 H   0  0  0  0  0  0  0  0  0  0  0  0
   15.1915   -7.3418   -0.0889 H   0  0  0  0  0  0  0  0  0  0  0  0
   14.1871   -5.0564    2.6963 H   0  0  0  0  0  0  0  0  0  0  0  0
   11.8653   -3.7271    3.3774 H   0  0  0  0  0  0  0  0  0  0  0  0
   10.5197   -4.3327    2.4001 H   0  0  0  0  0  0  0  0  0  0  0  0
   11.2983   -2.7870    1.9908 H   0  0  0  0  0  0  0  0  0  0  0  0
   11.3818   -4.1715   -1.6533 H   0  0  0  0  0  0  0  0  0  0  0  0
   10.6678   -3.4315   -0.2165 H   0  0  0  0  0  0  0  0  0  0  0  0
    9.6563   -5.6382    0.4109 H   0  0  0  0  0  0  0  0  0  0  0  0
   10.3206   -6.3725   -1.0367 H   0  0  0  0  0  0  0  0  0  0  0  0
    9.0145   -4.7678   -2.4663 H   0  0  0  0  0  0  0  0  0  0  0  0
    8.3229   -4.0346   -1.0191 H   0  0  0  0  0  0  0  0  0  0  0  0
    8.0580   -6.9505   -1.8910 H   0  0  0  0  0  0  0  0  0  0  0  0
    6.7790   -5.7208   -2.0192 H   0  0  0  0  0  0  0  0  0  0  0  0
    5.3611   -8.5079    1.5358 H   0  0  0  0  0  0  0  0  0  0  0  0
    6.1038   -7.0377    2.1201 H   0  0  0  0  0  0  0  0  0  0  0  0
    7.8640   -8.0806    3.0392 H   0  0  0  0  0  0  0  0  0  0  0  0
    8.2004   -9.0372    1.6176 H   0  0  0  0  0  0  0  0  0  0  0  0
    5.7331  -10.0425    2.8649 H   0  0  0  0  0  0  0  0  0  0  0  0
    6.9040   -9.7736    4.1212 H   0  0  0  0  0  0  0  0  0  0  0  0
    7.9165  -11.6891    3.6385 H   0  0  0  0  0  0  0  0  0  0  0  0
    8.4129  -11.0835    2.0830 H   0  0  0  0  0  0  0  0  0  0  0  0
    5.5658  -11.9319    2.0072 H   0  0  0  0  0  0  0  0  0  0  0  0
    6.5498  -13.1723    2.7294 H   0  0  0  0  0  0  0  0  0  0  0  0
    7.2883  -13.8576    0.7605 H   0  0  0  0  0  0  0  0  0  0  0  0
    8.0431  -12.3243    0.4264 H   0  0  0  0  0  0  0  0  0  0  0  0
    5.1106  -12.1659   -0.0294 H   0  0  0  0  0  0  0  0  0  0  0  0
    5.7819  -13.5575   -0.8287 H   0  0  0  0  0  0  0  0  0  0  0  0
    6.5528  -12.3296   -2.4952 H   0  0  0  0  0  0  0  0  0  0  0  0
    7.6365  -11.4596   -1.4445 H   0  0  0  0  0  0  0  0  0  0  0  0
    4.8740  -10.4272   -1.1722 H   0  0  0  0  0  0  0  0  0  0  0  0
    5.3169  -10.5334   -2.8554 H   0  0  0  0  0  0  0  0  0  0  0  0
    6.5441   -8.6614   -2.7413 H   0  0  0  0  0  0  0  0  0  0  0  0
    7.5875   -9.3204   -1.4781 H   0  0  0  0  0  0  0  0  0  0  0  0
  1  2  1  0  0  0  0
  1 27  1  0  0  0  0
  1 28  1  0  0  0  0
  1 29  1  0  0  0  0
  2  3  1  0  0  0  0
  2 26  2  0  0  0  0
  3  4  2  0  0  0  0
  3 30  1  0  0  0  0
  4  5  1  0  0  0  0
  4  6  1  0  0  0  0
  5 31  1  0  0  0  0
  5 32  1  0  0  0  0
  5 33  1  0  0  0  0
  6  7  1  0  0  0  0
  6 26  1  0  0  0  0
  7  8  1  0  0  0  0
  7 34  1  0  0  0  0
  7 35  1  0  0  0  0
  8  9  1  0  0  0  0
  8 36  1  0  0  0  0
  8 37  1  0  0  0  0
  9 10  1  0  0  0  0
  9 38  1  0  0  0  0
  9 39  1  0  0  0  0
 10 11  1  0  0  0  0
 10 40  1  0  0  0  0
 10 41  1  0  0  0  0
 11 12  2  0  0  0  0
 11 13  1  0  0  0  0
 13 14  1  0  0  0  0
 13 24  1  0  0  0  0
 14 15  1  0  0  0  0
 14 42  1  0  0  0  0
 14 43  1  0  0  0  0
 15 16  1  0  0  0  0
 15 44  1  0  0  0  0
 15 45  1  0  0  0  0
 16 17  1  0  0  0  0
 16 46  1  0  0  0  0
 16 47  1  0  0  0  0
 17 18  1  0  0  0  0
 17 48  1  0  0  0  0
 17 49  1  0  0  0  0
 18 19  1  0  0  0  0
 18 50  1  0  0  0  0
 18 51  1  0  0  0  0
 19 20  1  0  0  0  0
 19 52  1  0  0  0  0
 19 53  1  0  0  0  0
 20 21  1  0  0  0  0
 20 54  1  0  0  0  0
 20 55  1  0  0  0  0
 21 22  1  0  0  0  0
 21 56  1  0  0  0  0
 21 57  1  0  0  0  0
 22 23  1  0  0  0  0
 22 58  1  0  0  0  0
 22 59  1  0  0  0  0
 23 24  1  0  0  0  0
 23 60  1  0  0  0  0
 23 61  1  0  0  0  0
 24 25  2  0  0  0  0
M  END
$$$$
