
 OpenBabel04232216503D

 63 64  0  0  0  0  0  0  0  0999 V2000
    5.6836    1.0976   -0.0741 C   0  0  0  0  0  0  0  0  0  0  0  0
    6.5113    2.5283   -0.0435 C   0  0  0  0  0  0  0  0  0  0  0  0
    5.6463    3.4169   -0.6108 N   0  0  0  0  0  0  0  0  0  0  0  0
    4.5838    3.6549    0.1134 C   0  0  0  0  0  0  0  0  0  0  0  0
    3.5186    4.4190   -0.6591 C   0  0  0  0  0  0  0  0  0  0  0  0
    3.7535    5.8058   -0.4612 O   0  0  0  0  0  0  0  0  0  0  0  0
    4.7763    6.1934   -1.2848 C   0  0  0  0  0  3  0  0  0  0  0  0
    6.1635    6.2014   -0.7558 C   0  0  0  0  0  0  0  0  0  0  0  0
    6.9059    7.3599   -1.3557 C   0  0  0  0  0  0  0  0  0  0  0  0
    7.0030    8.3340   -0.3030 N   0  0  0  0  0  0  0  0  0  0  0  0
    7.8445    9.4308   -0.7207 C   0  0  0  0  0  0  0  0  0  0  0  0
    8.0900   10.2156    0.5307 C   0  0  0  0  0  0  0  0  0  0  0  0
    9.2384   11.1721    0.2762 C   0  0  0  0  0  0  0  0  0  0  0  0
   10.3016   10.6904    1.2387 C   0  0  0  0  0  0  0  0  0  0  0  0
   10.1822   11.1076    2.6978 C   0  0  0  0  0  0  0  0  0  0  0  0
    9.6220   12.5254    3.0350 C   0  0  0  0  0  0  0  0  0  0  0  0
    8.1286   12.7181    2.8390 C   0  0  0  0  0  0  0  0  0  0  0  0
   11.0659    9.6723    0.7214 C   0  0  0  0  0  0  0  0  0  0  0  0
   11.9599   10.3787   -0.3639 C   0  0  0  0  0  0  0  0  0  0  0  0
   10.6069    8.1286    1.0788 C   0  0  0  0  0  0  0  0  0  0  0  0
    9.9492    7.0311    0.4645 C   0  0  0  0  0  0  0  0  0  0  0  0
    9.1112    5.7151    1.1545 C   0  0  0  0  0  0  0  0  0  0  0  0
    8.3587    4.5630    0.7442 C   0  0  0  0  0  0  0  0  0  0  0  0
    4.2809    3.2765    1.5714 C   0  0  0  0  0  0  0  0  0  0  0  0
    4.9872    2.6180    2.5577 C   0  0  0  0  0  0  0  0  0  0  0  0
    6.2823    1.9322    2.6505 C   0  0  0  0  0  0  0  0  0  0  0  0
    7.4438    2.1510    1.9761 C   0  0  0  0  0  0  0  0  0  0  0  0
    7.5054    3.0607    0.8045 C   0  0  0  0  0  0  0  0  0  0  0  0
    4.7123    1.2380   -0.5889 H   0  0  0  0  0  0  0  0  0  0  0  0
    5.3583    0.6927    0.8828 H   0  0  0  0  0  0  0  0  0  0  0  0
    6.1922    0.2979   -0.6246 H   0  0  0  0  0  0  0  0  0  0  0  0
    2.5028    4.1668   -0.3136 H   0  0  0  0  0  0  0  0  0  0  0  0
    3.5585    4.1434   -1.7218 H   0  0  0  0  0  0  0  0  0  0  0  0
    4.6136    6.0212   -2.3361 H   0  0  0  0  0  0  0  0  0  0  0  0
    6.7150    5.3117   -1.0711 H   0  0  0  0  0  0  0  0  0  0  0  0
    6.1528    6.2044    0.3456 H   0  0  0  0  0  0  0  0  0  0  0  0
    6.3829    7.7840   -2.2214 H   0  0  0  0  0  0  0  0  0  0  0  0
    7.8899    7.0264   -1.7066 H   0  0  0  0  0  0  0  0  0  0  0  0
    7.4273    7.8861    0.5140 H   0  0  0  0  0  0  0  0  0  0  0  0
    7.3407   10.0437   -1.4690 H   0  0  0  0  0  0  0  0  0  0  0  0
    8.7753    9.0633   -1.1738 H   0  0  0  0  0  0  0  0  0  0  0  0
    8.3622    9.5069    1.3348 H   0  0  0  0  0  0  0  0  0  0  0  0
    7.1995   10.7151    0.9076 H   0  0  0  0  0  0  0  0  0  0  0  0
    8.9694   12.2236    0.3598 H   0  0  0  0  0  0  0  0  0  0  0  0
    9.5743   11.0937   -0.7692 H   0  0  0  0  0  0  0  0  0  0  0  0
   11.2089   11.1322    3.0928 H   0  0  0  0  0  0  0  0  0  0  0  0
    9.6236   10.3559    3.2681 H   0  0  0  0  0  0  0  0  0  0  0  0
   10.1610   13.3280    2.5240 H   0  0  0  0  0  0  0  0  0  0  0  0
    9.7939   12.6887    4.1062 H   0  0  0  0  0  0  0  0  0  0  0  0
    7.8636   12.9494    1.7779 H   0  0  0  0  0  0  0  0  0  0  0  0
    7.7513   13.5774    3.4082 H   0  0  0  0  0  0  0  0  0  0  0  0
    7.5805   11.8753    3.1388 H   0  0  0  0  0  0  0  0  0  0  0  0
   11.6988   10.1893   -1.4068 H   0  0  0  0  0  0  0  0  0  0  0  0
   13.0422   10.3239   -0.1913 H   0  0  0  0  0  0  0  0  0  0  0  0
   11.8284   11.4929   -0.2897 H   0  0  0  0  0  0  0  0  0  0  0  0
   10.7302    8.0637    2.1632 H   0  0  0  0  0  0  0  0  0  0  0  0
    9.8194    7.0456   -0.6151 H   0  0  0  0  0  0  0  0  0  0  0  0
    9.1190    5.9459    2.2285 H   0  0  0  0  0  0  0  0  0  0  0  0
    7.9302    4.5146    1.7875 H   0  0  0  0  0  0  0  0  0  0  0  0
    3.2860    3.5860    1.8496 H   0  0  0  0  0  0  0  0  0  0  0  0
    4.3972    2.4254    3.4669 H   0  0  0  0  0  0  0  0  0  0  0  0
    6.2379    1.0158    3.2536 H   0  0  0  0  0  0  0  0  0  0  0  0
    8.2339    1.3997    2.0373 H   0  0  0  0  0  0  0  0  0  0  0  0
  1  2  1  0  0  0  0
  1 29  1  0  0  0  0
  1 30  1  0  0  0  0
  1 31  1  0  0  0  0
  2  3  1  0  0  0  0
  2 28  2  0  0  0  0
  3  4  2  0  0  0  0
  4  5  1  0  0  0  0
  4 24  1  0  0  0  0
  5  6  1  0  0  0  0
  5 32  1  0  0  0  0
  5 33  1  0  0  0  0
  6  7  1  0  0  0  0
  7  8  1  0  0  0  0
  7 34  1  0  0  0  0
  8  9  1  0  0  0  0
  8 35  1  0  0  0  0
  8 36  1  0  0  0  0
  9 10  1  0  0  0  0
  9 37  1  0  0  0  0
  9 38  1  0  0  0  0
 10 11  1  0  0  0  0
 10 39  1  0  0  0  0
 11 12  1  0  0  0  0
 11 40  1  0  0  0  0
 11 41  1  0  0  0  0
 12 13  1  0  0  0  0
 12 42  1  0  0  0  0
 12 43  1  0  0  0  0
 13 14  1  0  0  0  0
 13 44  1  0  0  0  0
 13 45  1  0  0  0  0
 14 15  1  0  0  0  0
 14 18  2  3  0  0  0
 15 16  1  0  0  0  0
 15 46  1  0  0  0  0
 15 47  1  0  0  0  0
 16 17  1  0  0  0  0
 16 48  1  0  0  0  0
 16 49  1  0  0  0  0
 17 50  1  0  0  0  0
 17 51  1  0  0  0  0
 17 52  1  0  0  0  0
 18 19  1  0  0  0  0
 18 20  1  0  0  0  0
 19 53  1  0  0  0  0
 19 54  1  0  0  0  0
 19 55  1  0  0  0  0
 20 21  2  3  0  0  0
 20 56  1  0  0  0  0
 21 22  1  0  0  0  0
 21 57  1  0  0  0  0
 22 23  2  3  0  0  0
 22 58  1  0  0  0  0
 23 28  1  0  0  0  0
 23 59  1  0  0  0  0
 24 25  2  0  0  0  0
 24 60  1  0  0  0  0
 25 26  1  0  0  0  0
 25 61  1  0  0  0  0
 26 27  2  0  0  0  0
 26 62  1  0  0  0  0
 27 28  1  0  0  0  0
 27 63  1  0  0  0  0
M  END
$$$$
