
 OpenBabel04232217023D

 92 91  0  0  0  0  0  0  0  0999 V2000
   17.7799    8.5104   -9.7330 O   0  0  0  0  0  0  0  0  0  0  0  0
   17.3601    8.8294   -8.3740 O   0  0  0  0  0  0  0  0  0  0  0  0
   15.7028    8.9858   -8.3238 S   0  0  0  0  0  0  0  0  0  0  0  0
   15.2084    7.2779   -8.7310 C   0  0  0  0  0  0  0  0  0  0  0  0
   13.6812    7.1919   -8.6989 C   0  0  0  0  0  0  0  0  0  0  0  0
   13.1701    5.8537   -9.0403 N   0  0  0  0  0  0  0  0  0  0  0  0
   13.6450    4.9074   -8.0740 N   0  0  0  0  0  0  0  0  0  0  0  0
   13.1896    3.6062   -8.3865 N   0  0  0  0  0  0  0  0  0  0  0  0
   13.6964    2.6876   -7.4416 N   0  0  0  0  0  0  0  0  0  0  0  0
   13.2432    1.3507   -7.6972 N   0  0  0  0  0  0  0  0  0  0  0  0
   13.9205    0.3049   -6.5828 S   0  0  0  0  0  0  0  0  0  0  0  0
   13.1921   -1.5432   -7.1577 S   0  0  0  0  0  0  0  0  0  0  0  0
   13.9091   -1.9952   -9.0559 S   0  0  0  0  0  0  0  0  0  0  0  0
   15.9876   -2.0648   -9.0308 S   0  0  0  0  0  0  0  0  0  0  0  0
   16.6534   -2.4702  -10.9870 S   0  0  0  0  0  0  0  0  0  0  0  0
   18.7648   -2.4694  -10.9810 S   0  0  0  0  0  0  0  0  0  0  0  0
   19.4570   -2.8970  -12.9285 S   0  0  0  0  0  0  0  0  0  0  0  0
   21.5678   -2.8941  -12.9161 S   0  0  0  0  0  0  0  0  0  0  0  0
   22.2594   -3.3211  -14.8634 S   0  0  0  0  0  0  0  0  0  0  0  0
   24.3690   -3.3183  -14.8505 S   0  0  0  0  0  0  0  0  0  0  0  0
   25.0598   -3.7453  -16.7975 S   0  0  0  0  0  0  0  0  0  0  0  0
   27.1692   -3.7425  -16.7846 S   0  0  0  0  0  0  0  0  0  0  0  0
   27.8598   -4.1694  -18.7315 S   0  0  0  0  0  0  0  0  0  0  0  0
   29.9692   -4.1666  -18.7186 S   0  0  0  0  0  0  0  0  0  0  0  0
   30.6598   -4.5935  -20.6655 S   0  0  0  0  0  0  0  0  0  0  0  0
   32.7692   -4.5907  -20.6525 S   0  0  0  0  0  0  0  0  0  0  0  0
   33.4599   -5.0176  -22.5994 S   0  0  0  0  0  0  0  0  0  0  0  0
   35.5692   -5.0148  -22.5864 S   0  0  0  0  0  0  0  0  0  0  0  0
   36.2598   -5.4417  -24.5333 S   0  0  0  0  0  0  0  0  0  0  0  0
   38.3692   -5.4389  -24.5204 S   0  0  0  0  0  0  0  0  0  0  0  0
   39.0598   -5.8658  -26.4673 S   0  0  0  0  0  0  0  0  0  0  0  0
   41.1692   -5.8629  -26.4543 S   0  0  0  0  0  0  0  0  0  0  0  0
   41.8598   -6.2899  -28.4012 S   0  0  0  0  0  0  0  0  0  0  0  0
   43.9692   -6.2870  -28.3883 S   0  0  0  0  0  0  0  0  0  0  0  0
   44.6598   -6.7140  -30.3352 S   0  0  0  0  0  0  0  0  0  0  0  0
   46.7692   -6.7111  -30.3222 S   0  0  0  0  0  0  0  0  0  0  0  0
   47.4598   -7.1381  -32.2691 S   0  0  0  0  0  0  0  0  0  0  0  0
   49.5692   -7.1352  -32.2562 S   0  0  0  0  0  0  0  0  0  0  0  0
   50.2598   -7.5622  -34.2031 S   0  0  0  0  0  0  0  0  0  0  0  0
   52.3692   -7.5593  -34.1901 S   0  0  0  0  0  0  0  0  0  0  0  0
   53.0598   -7.9863  -36.1370 S   0  0  0  0  0  0  0  0  0  0  0  0
   55.1692   -7.9834  -36.1241 S   0  0  0  0  0  0  0  0  0  0  0  0
   55.8598   -8.4104  -38.0710 S   0  0  0  0  0  0  0  0  0  0  0  0
   57.9692   -8.4075  -38.0580 S   0  0  0  0  0  0  0  0  0  0  0  0
   58.6598   -8.8345  -40.0049 S   0  0  0  0  0  0  0  0  0  0  0  0
   60.7692   -8.8316  -39.9920 S   0  0  0  0  0  0  0  0  0  0  0  0
   61.4598   -9.2586  -41.9389 S   0  0  0  0  0  0  0  0  0  0  0  0
   63.5691   -9.2557  -41.9259 S   0  0  0  0  0  0  0  0  0  0  0  0
   64.2598   -9.6827  -43.8728 S   0  0  0  0  0  0  0  0  0  0  0  0
   66.3691   -9.6798  -43.8599 S   0  0  0  0  0  0  0  0  0  0  0  0
   67.0598  -10.1068  -45.8068 S   0  0  0  0  0  0  0  0  0  0  0  0
   69.1691  -10.1039  -45.7938 S   0  0  0  0  0  0  0  0  0  0  0  0
   69.8598  -10.5309  -47.7407 S   0  0  0  0  0  0  0  0  0  0  0  0
   71.9691  -10.5280  -47.7278 S   0  0  0  0  0  0  0  0  0  0  0  0
   72.6597  -10.9550  -49.6747 S   0  0  0  0  0  0  0  0  0  0  0  0
   74.7691  -10.9521  -49.6617 S   0  0  0  0  0  0  0  0  0  0  0  0
   75.4597  -11.3791  -51.6086 S   0  0  0  0  0  0  0  0  0  0  0  0
   77.5691  -11.3762  -51.5957 S   0  0  0  0  0  0  0  0  0  0  0  0
   78.2597  -11.8032  -53.5426 S   0  0  0  0  0  0  0  0  0  0  0  0
   80.3691  -11.8003  -53.5296 S   0  0  0  0  0  0  0  0  0  0  0  0
   81.0597  -12.2273  -55.4765 S   0  0  0  0  0  0  0  0  0  0  0  0
   83.1691  -12.2244  -55.4636 S   0  0  0  0  0  0  0  0  0  0  0  0
   83.8597  -12.6514  -57.4104 S   0  0  0  0  0  0  0  0  0  0  0  0
   85.9691  -12.6485  -57.3975 S   0  0  0  0  0  0  0  0  0  0  0  0
   86.6589  -13.0755  -59.3448 S   0  0  0  0  0  0  0  0  0  0  0  0
   88.7694  -13.0726  -59.3314 S   0  0  0  0  0  0  0  0  0  0  0  0
   89.4606  -13.4995  -61.2780 S   0  0  0  0  0  0  0  0  0  0  0  0
   91.5696  -13.4972  -61.2678 S   0  0  0  0  0  0  0  0  0  0  0  0
   92.2564  -13.9246  -63.2164 S   0  0  0  0  0  0  0  0  0  0  0  0
   94.3662  -13.9229  -63.2091 S   0  0  0  0  0  0  0  0  0  0  0  0
   95.0579  -14.3492  -65.1530 S   0  0  0  0  0  0  0  0  0  0  0  0
   97.1684  -14.3454  -65.1357 S   0  0  0  0  0  0  0  0  0  0  0  0
   97.8608  -14.7719  -67.0803 S   0  0  0  0  0  0  0  0  0  0  0  0
   99.9686  -14.7689  -67.0669 S   0  0  0  0  0  0  0  0  0  0  0  0
  100.6580  -15.1956  -69.0130 S   0  0  0  0  0  0  0  0  0  0  0  0
  102.7641  -15.1929  -68.9978 S   0  0  0  0  0  0  0  0  0  0  0  0
  103.4495  -15.6183  -70.9402 S   0  0  0  0  0  0  0  0  0  0  0  0
  105.5442  -15.5893  -70.9118 S   0  0  0  0  0  0  0  0  0  0  0  0
  106.2277  -16.0825  -72.8180 S   0  0  0  0  0  0  0  0  0  0  0  0
  108.3034  -16.0117  -72.7868 S   0  0  0  0  0  0  0  0  0  0  0  0
  108.9169  -17.5212  -71.5175 S   0  0  0  0  0  0  0  0  0  0  0  0
   18.7471    8.4891   -9.5107 H   0  0  0  0  0  0  0  0  0  0  0  0
   15.6429    6.5807   -8.0037 H   0  0  0  0  0  0  0  0  0  0  0  0
   15.5790    7.0006   -9.7278 H   0  0  0  0  0  0  0  0  0  0  0  0
   13.2591    7.9173   -9.4215 H   0  0  0  0  0  0  0  0  0  0  0  0
   13.2979    7.4934   -7.7167 H   0  0  0  0  0  0  0  0  0  0  0  0
   13.5364    5.5591   -9.9355 H   0  0  0  0  0  0  0  0  0  0  0  0
   13.3364    5.1371   -7.1527 H   0  0  0  0  0  0  0  0  0  0  0  0
   13.5424    3.3328   -9.3222 H   0  0  0  0  0  0  0  0  0  0  0  0
   13.3851    2.9949   -6.5195 H   0  0  0  0  0  0  0  0  0  0  0  0
   13.5887    1.0969   -8.6299 H   0  0  0  0  0  0  0  0  0  0  0  0
  110.2606  -17.4198  -71.5661 H   0  0  0  0  0  0  0  0  0  0  0  0
  1  2  1  0  0  0  0
  1 82  1  0  0  0  0
  2  3  1  0  0  0  0
  3  4  1  0  0  0  0
  4  5  1  0  0  0  0
  4 83  1  0  0  0  0
  4 84  1  0  0  0  0
  5  6  1  0  0  0  0
  5 85  1  0  0  0  0
  5 86  1  0  0  0  0
  6  7  1  0  0  0  0
  6 87  1  0  0  0  0
  7  8  1  0  0  0  0
  7 88  1  0  0  0  0
  8  9  1  0  0  0  0
  8 89  1  0  0  0  0
  9 10  1  0  0  0  0
  9 90  1  0  0  0  0
 10 11  1  0  0  0  0
 10 91  1  0  0  0  0
 11 12  1  0  0  0  0
 12 13  1  0  0  0  0
 13 14  1  0  0  0  0
 14 15  1  0  0  0  0
 15 16  1  0  0  0  0
 16 17  1  0  0  0  0
 17 18  1  0  0  0  0
 18 19  1  0  0  0  0
 19 20  1  0  0  0  0
 20 21  1  0  0  0  0
 21 22  1  0  0  0  0
 22 23  1  0  0  0  0
 23 24  1  0  0  0  0
 24 25  1  0  0  0  0
 25 26  1  0  0  0  0
 26 27  1  0  0  0  0
 27 28  1  0  0  0  0
 28 29  1  0  0  0  0
 29 30  1  0  0  0  0
 30 31  1  0  0  0  0
 31 32  1  0  0  0  0
 32 33  1  0  0  0  0
 33 34  1  0  0  0  0
 34 35  1  0  0  0  0
 35 36  1  0  0  0  0
 36 37  1  0  0  0  0
 37 38  1  0  0  0  0
 38 39  1  0  0  0  0
 39 40  1  0  0  0  0
 40 41  1  0  0  0  0
 41 42  1  0  0  0  0
 42 43  1  0  0  0  0
 43 44  1  0  0  0  0
 44 45  1  0  0  0  0
 45 46  1  0  0  0  0
 46 47  1  0  0  0  0
 47 48  1  0  0  0  0
 48 49  1  0  0  0  0
 49 50  1  0  0  0  0
 50 51  1  0  0  0  0
 51 52  1  0  0  0  0
 52 53  1  0  0  0  0
 53 54  1  0  0  0  0
 54 55  1  0  0  0  0
 55 56  1  0  0  0  0
 56 57  1  0  0  0  0
 57 58  1  0  0  0  0
 58 59  1  0  0  0  0
 59 60  1  0  0  0  0
 60 61  1  0  0  0  0
 61 62  1  0  0  0  0
 62 63  1  0  0  0  0
 63 64  1  0  0  0  0
 64 65  1  0  0  0  0
 65 66  1  0  0  0  0
 66 67  1  0  0  0  0
 67 68  1  0  0  0  0
 68 69  1  0  0  0  0
 69 70  1  0  0  0  0
 70 71  1  0  0  0  0
 71 72  1  0  0  0  0
 72 73  1  0  0  0  0
 73 74  1  0  0  0  0
 74 75  1  0  0  0  0
 75 76  1  0  0  0  0
 76 77  1  0  0  0  0
 77 78  1  0  0  0  0
 78 79  1  0  0  0  0
 79 80  1  0  0  0  0
 80 81  1  0  0  0  0
 81 92  1  0  0  0  0
M  END
$$$$
