
 OpenBabel04232216523D

 59 60  0  0  1  0  0  0  0  0999 V2000
    4.4134   -2.7125    1.2200 C   0  0  0  0  0  0  0  0  0  0  0  0
    4.1764   -1.3182    0.6702 C   0  0  0  0  0  0  0  0  0  0  0  0
    4.6862   -1.2337   -0.7616 C   0  0  0  0  0  0  0  0  0  0  0  0
    4.4600    0.1499   -1.3722 C   0  0  0  0  0  0  0  0  0  0  0  0
    4.9745    0.2077   -2.8119 C   0  0  3  0  0  0  0  0  0  0  0  0
    4.8015    1.6087   -3.4645 C   0  0  3  0  0  0  0  0  0  0  0  0
    6.1200    2.0058   -4.1520 C   0  0  0  0  0  0  0  0  0  0  0  0
    7.3036    2.0500   -3.1868 C   0  0  0  0  0  0  0  0  0  0  0  0
    3.5977    1.4761   -4.4435 C   0  0  3  0  0  0  0  0  0  0  0  0
    3.7092    2.2307   -5.7981 C   0  0  0  0  0  0  0  0  0  0  0  0
    4.2296    1.7514   -6.7983 O   0  0  0  0  0  0  0  0  0  0  0  0
    3.1308    3.6037   -5.8730 C   0  0  0  0  0  0  0  0  0  0  0  0
    2.9471    4.4322   -4.8409 C   0  0  0  0  0  0  0  0  0  0  0  0
    2.3214    5.6550   -5.3038 C   0  0  0  0  0  0  0  0  0  0  0  0
    2.0977    5.5791   -6.6233 C   0  0  0  0  0  0  0  0  0  0  0  0
    1.4153    6.4630   -7.4298 N   0  0  0  0  0  0  0  0  0  0  0  0
    1.8188    7.8396   -7.6818 C   0  0  0  0  0  0  0  0  0  0  0  0
    2.8144    7.9494   -8.8402 C   0  0  0  0  0  0  0  0  0  0  0  0
    3.2109    9.4119   -9.0746 C   0  0  0  0  0  0  0  0  0  0  0  0
    4.2101    9.5518  -10.2223 C   0  0  0  0  0  0  0  0  0  0  0  0
    4.5938   11.0072  -10.4412 C   0  0  0  0  0  0  0  0  0  0  0  0
    2.6174    4.2453   -7.1355 C   0  0  0  0  0  0  0  0  0  0  0  0
    3.4963   -0.0136   -4.6185 C   0  0  0  0  0  0  0  0  0  0  0  0
    4.2443   -0.6926   -3.7522 C   0  0  0  0  0  0  0  0  0  0  0  0
    4.0548   -2.7951    2.2396 H   0  0  0  0  0  0  0  0  0  0  0  0
    5.4882   -2.9525    1.2021 H   0  0  0  0  0  0  0  0  0  0  0  0
    3.8929   -3.4618    0.6006 H   0  0  0  0  0  0  0  0  0  0  0  0
    4.6921   -0.5773    1.2953 H   0  0  0  0  0  0  0  0  0  0  0  0
    3.1049   -1.0805    0.7014 H   0  0  0  0  0  0  0  0  0  0  0  0
    4.1774   -1.9980   -1.3602 H   0  0  0  0  0  0  0  0  0  0  0  0
    5.7568   -1.4753   -0.7748 H   0  0  0  0  0  0  0  0  0  0  0  0
    4.9945    0.8956   -0.7691 H   0  0  0  0  0  0  0  0  0  0  0  0
    3.3972    0.4072   -1.3369 H   0  0  0  0  0  0  0  0  0  0  0  0
    6.0197   -0.1115   -2.8001 H   0  0  0  0  0  0  0  0  0  0  0  0
    4.5608    2.3682   -2.7073 H   0  0  0  0  0  0  0  0  0  0  0  0
    6.0202    3.0036   -4.5907 H   0  0  0  0  0  0  0  0  0  0  0  0
    6.3404    1.3090   -4.9703 H   0  0  0  0  0  0  0  0  0  0  0  0
    7.0619    2.6569   -2.3087 H   0  0  0  0  0  0  0  0  0  0  0  0
    8.1660    2.4860   -3.6922 H   0  0  0  0  0  0  0  0  0  0  0  0
    7.6091    1.0595   -2.8401 H   0  0  0  0  0  0  0  0  0  0  0  0
    2.6638    1.7966   -3.9569 H   0  0  0  0  0  0  0  0  0  0  0  0
    3.1794    4.2423   -3.8066 H   0  0  0  0  0  0  0  0  0  0  0  0
    1.9954    6.4459   -4.6519 H   0  0  0  0  0  0  0  0  0  0  0  0
    0.8341    6.0398   -8.1504 H   0  0  0  0  0  0  0  0  0  0  0  0
    2.2540    8.2771   -6.7777 H   0  0  0  0  0  0  0  0  0  0  0  0
    0.9196    8.4193   -7.9242 H   0  0  0  0  0  0  0  0  0  0  0  0
    2.3760    7.5367   -9.7572 H   0  0  0  0  0  0  0  0  0  0  0  0
    3.7126    7.3576   -8.6237 H   0  0  0  0  0  0  0  0  0  0  0  0
    3.6495    9.8265   -8.1583 H   0  0  0  0  0  0  0  0  0  0  0  0
    2.3154   10.0054   -9.2976 H   0  0  0  0  0  0  0  0  0  0  0  0
    3.7767    9.1502  -11.1456 H   0  0  0  0  0  0  0  0  0  0  0  0
    5.1128    8.9693  -10.0052 H   0  0  0  0  0  0  0  0  0  0  0  0
    3.7142   11.6105  -10.6883 H   0  0  0  0  0  0  0  0  0  0  0  0
    5.3083   11.0935  -11.2656 H   0  0  0  0  0  0  0  0  0  0  0  0
    5.0571   11.4288   -9.5433 H   0  0  0  0  0  0  0  0  0  0  0  0
    3.4005    4.4059   -7.8824 H   0  0  0  0  0  0  0  0  0  0  0  0
    1.7856    3.6746   -7.5599 H   0  0  0  0  0  0  0  0  0  0  0  0
    2.8648   -0.4814   -5.3650 H   0  0  0  0  0  0  0  0  0  0  0  0
    4.3392   -1.7709   -3.7278 H   0  0  0  0  0  0  0  0  0  0  0  0
  1  2  1  0  0  0  0
  1 25  1  0  0  0  0
  1 26  1  0  0  0  0
  1 27  1  0  0  0  0
  2  3  1  0  0  0  0
  2 28  1  0  0  0  0
  2 29  1  0  0  0  0
  3  4  1  0  0  0  0
  3 30  1  0  0  0  0
  3 31  1  0  0  0  0
  4  5  1  0  0  0  0
  4 32  1  0  0  0  0
  4 33  1  0  0  0  0
  5  6  1  0  0  0  0
  5 24  1  0  0  0  0
  5 34  1  0  0  0  0
  6  7  1  0  0  0  0
  6  9  1  0  0  0  0
  6 35  1  0  0  0  0
  7  8  1  0  0  0  0
  7 36  1  0  0  0  0
  7 37  1  0  0  0  0
  8 38  1  0  0  0  0
  8 39  1  0  0  0  0
  8 40  1  0  0  0  0
  9 10  1  0  0  0  0
  9 23  1  0  0  0  0
  9 41  1  0  0  0  0
 10 11  2  0  0  0  0
 10 12  1  0  0  0  0
 12 13  2  0  0  0  0
 12 22  1  0  0  0  0
 13 14  1  0  0  0  0
 13 42  1  0  0  0  0
 14 15  2  0  0  0  0
 14 43  1  0  0  0  0
 15 16  1  0  0  0  0
 15 22  1  0  0  0  0
 16 17  1  0  0  0  0
 16 44  1  0  0  0  0
 17 18  1  0  0  0  0
 17 45  1  0  0  0  0
 17 46  1  0  0  0  0
 18 19  1  0  0  0  0
 18 47  1  0  0  0  0
 18 48  1  0  0  0  0
 19 20  1  0  0  0  0
 19 49  1  0  0  0  0
 19 50  1  0  0  0  0
 20 21  1  0  0  0  0
 20 51  1  0  0  0  0
 20 52  1  0  0  0  0
 21 53  1  0  0  0  0
 21 54  1  0  0  0  0
 21 55  1  0  0  0  0
 22 56  1  0  0  0  0
 22 57  1  0  0  0  0
 23 24  2  0  0  0  0
 23 58  1  0  0  0  0
 24 59  1  0  0  0  0
M  END
$$$$
