
 OpenBabel04232216493D

 69 70  0  0  1  0  0  0  0  0999 V2000
    0.8533   -0.0115    0.0127 C   0  0  0  0  0  0  0  0  0  0  0  0
    2.3884    0.0334   -0.0695 C   0  0  3  0  0  0  0  0  0  0  0  0
    2.8915   -1.3048   -0.6657 C   0  0  0  0  0  0  0  0  0  0  0  0
    3.5944   -2.2074    0.3675 C   0  0  0  0  0  0  0  0  0  0  0  0
    5.0876   -1.8792    0.5065 C   0  0  0  0  0  0  0  0  0  0  0  0
    5.4574   -1.2843    1.8704 C   0  0  0  0  0  0  0  0  0  0  0  0
    6.7259   -0.4259    1.7677 C   0  0  0  0  0  0  0  0  0  0  0  0
    6.7347    0.7582    2.7470 C   0  0  0  0  0  0  0  0  0  0  0  0
    7.1906    2.0668    2.0741 C   0  0  0  0  0  0  0  0  0  0  0  0
    6.0383    3.0362    1.7551 C   0  0  0  0  0  0  0  0  0  0  0  0
    4.9560    2.4225    0.8570 C   0  0  0  0  0  0  0  0  0  0  0  0
    3.8138    3.3562    0.4064 C   0  0  3  0  0  0  0  0  0  0  0  0
    3.2676    4.2547    1.5369 C   0  0  0  0  0  0  0  0  0  0  0  0
    3.3358    3.8784    2.7069 O   0  0  0  0  0  0  0  0  0  0  0  0
    2.5755    5.5115    1.1061 C   0  0  0  0  0  0  0  0  0  0  0  0
    2.3231    6.6297    1.8183 C   0  0  0  0  0  0  0  0  0  0  0  0
    2.5603    7.2018    2.9761 N   0  0  0  0  0  0  0  0  0  0  0  0
    3.9236    7.3670    3.4817 C   0  0  0  0  0  0  0  0  0  0  0  0
    3.9007    7.9615    4.8930 C   0  0  0  0  0  0  0  0  0  0  0  0
    3.2836    6.9995    5.9084 C   0  0  0  0  0  0  0  0  0  0  0  0
    3.2692    7.5895    7.3173 C   0  0  0  0  0  0  0  0  0  0  0  0
    2.6335    6.6198    8.3013 C   0  0  0  0  0  0  0  0  0  0  0  0
    1.4329    7.1796    0.6894 C   0  0  0  0  0  0  0  0  0  0  0  0
    1.8014    5.9235   -0.1044 C   0  0  0  0  0  0  0  0  0  0  0  0
    2.6063    2.6048   -0.2238 C   0  0  0  0  0  0  0  0  0  0  0  0
    2.8568    1.2470   -0.9116 C   0  0  0  0  0  0  0  0  0  0  0  0
    0.5213   -0.8931    0.5715 H   0  0  0  0  0  0  0  0  0  0  0  0
    0.4079   -0.0593   -0.9877 H   0  0  0  0  0  0  0  0  0  0  0  0
    0.4417    0.8660    0.5183 H   0  0  0  0  0  0  0  0  0  0  0  0
    2.7743    0.1494    0.9487 H   0  0  0  0  0  0  0  0  0  0  0  0
    3.5577   -1.1335   -1.5197 H   0  0  0  0  0  0  0  0  0  0  0  0
    2.0428   -1.8702   -1.0719 H   0  0  0  0  0  0  0  0  0  0  0  0
    3.5121   -3.2422    0.0125 H   0  0  0  0  0  0  0  0  0  0  0  0
    3.0743   -2.1746    1.3322 H   0  0  0  0  0  0  0  0  0  0  0  0
    5.3873   -1.1995   -0.2987 H   0  0  0  0  0  0  0  0  0  0  0  0
    5.6721   -2.7964    0.3599 H   0  0  0  0  0  0  0  0  0  0  0  0
    5.6221   -2.0967    2.5905 H   0  0  0  0  0  0  0  0  0  0  0  0
    4.6226   -0.6910    2.2541 H   0  0  0  0  0  0  0  0  0  0  0  0
    6.8441   -0.0590    0.7429 H   0  0  0  0  0  0  0  0  0  0  0  0
    7.6026   -1.0579    1.9612 H   0  0  0  0  0  0  0  0  0  0  0  0
    7.4300    0.5201    3.5611 H   0  0  0  0  0  0  0  0  0  0  0  0
    5.7585    0.9010    3.2246 H   0  0  0  0  0  0  0  0  0  0  0  0
    7.7679    1.8666    1.1637 H   0  0  0  0  0  0  0  0  0  0  0  0
    7.8741    2.5844    2.7582 H   0  0  0  0  0  0  0  0  0  0  0  0
    6.4487    3.9359    1.2820 H   0  0  0  0  0  0  0  0  0  0  0  0
    5.6121    3.3490    2.7122 H   0  0  0  0  0  0  0  0  0  0  0  0
    4.5143    1.5673    1.3730 H   0  0  0  0  0  0  0  0  0  0  0  0
    5.4605    2.0383   -0.0372 H   0  0  0  0  0  0  0  0  0  0  0  0
    4.2422    4.0300   -0.3571 H   0  0  0  0  0  0  0  0  0  0  0  0
    1.9748    7.9891    3.2528 H   0  0  0  0  0  0  0  0  0  0  0  0
    4.4559    8.0654    2.8232 H   0  0  0  0  0  0  0  0  0  0  0  0
    4.4719    6.4189    3.4760 H   0  0  0  0  0  0  0  0  0  0  0  0
    3.3423    8.9069    4.8921 H   0  0  0  0  0  0  0  0  0  0  0  0
    4.9285    8.2007    5.1933 H   0  0  0  0  0  0  0  0  0  0  0  0
    3.8503    6.0607    5.9090 H   0  0  0  0  0  0  0  0  0  0  0  0
    2.2562    6.7566    5.6127 H   0  0  0  0  0  0  0  0  0  0  0  0
    2.7075    8.5310    7.3245 H   0  0  0  0  0  0  0  0  0  0  0  0
    4.2914    7.8177    7.6405 H   0  0  0  0  0  0  0  0  0  0  0  0
    1.6003    6.3958    8.0159 H   0  0  0  0  0  0  0  0  0  0  0  0
    2.6234    7.0476    9.3080 H   0  0  0  0  0  0  0  0  0  0  0  0
    3.1903    5.6778    8.3356 H   0  0  0  0  0  0  0  0  0  0  0  0
    1.7695    8.1182    0.2330 H   0  0  0  0  0  0  0  0  0  0  0  0
    0.3691    7.2755    0.9299 H   0  0  0  0  0  0  0  0  0  0  0  0
    2.3797    6.1137   -1.0140 H   0  0  0  0  0  0  0  0  0  0  0  0
    0.9393    5.3004   -0.3617 H   0  0  0  0  0  0  0  0  0  0  0  0
    2.1608    3.2683   -0.9764 H   0  0  0  0  0  0  0  0  0  0  0  0
    1.8334    2.4928    0.5448 H   0  0  0  0  0  0  0  0  0  0  0  0
    3.9094    1.1393   -1.1907 H   0  0  0  0  0  0  0  0  0  0  0  0
    2.3052    1.2371   -1.8616 H   0  0  0  0  0  0  0  0  0  0  0  0
  1  2  1  0  0  0  0
  1 27  1  0  0  0  0
  1 28  1  0  0  0  0
  1 29  1  0  0  0  0
  2  3  1  0  0  0  0
  2 26  1  0  0  0  0
  2 30  1  0  0  0  0
  3  4  1  0  0  0  0
  3 31  1  0  0  0  0
  3 32  1  0  0  0  0
  4  5  1  0  0  0  0
  4 33  1  0  0  0  0
  4 34  1  0  0  0  0
  5  6  1  0  0  0  0
  5 35  1  0  0  0  0
  5 36  1  0  0  0  0
  6  7  1  0  0  0  0
  6 37  1  0  0  0  0
  6 38  1  0  0  0  0
  7  8  1  0  0  0  0
  7 39  1  0  0  0  0
  7 40  1  0  0  0  0
  8  9  1  0  0  0  0
  8 41  1  0  0  0  0
  8 42  1  0  0  0  0
  9 10  1  0  0  0  0
  9 43  1  0  0  0  0
  9 44  1  0  0  0  0
 10 11  1  0  0  0  0
 10 45  1  0  0  0  0
 10 46  1  0  0  0  0
 11 12  1  0  0  0  0
 11 47  1  0  0  0  0
 11 48  1  0  0  0  0
 12 13  1  0  0  0  0
 12 25  1  0  0  0  0
 12 49  1  0  0  0  0
 13 14  2  0  0  0  0
 13 15  1  0  0  0  0
 15 16  2  0  0  0  0
 15 24  1  0  0  0  0
 16 17  1  0  0  0  0
 16 23  1  0  0  0  0
 17 18  1  0  0  0  0
 17 50  1  0  0  0  0
 18 19  1  0  0  0  0
 18 51  1  0  0  0  0
 18 52  1  0  0  0  0
 19 20  1  0  0  0  0
 19 53  1  0  0  0  0
 19 54  1  0  0  0  0
 20 21  1  0  0  0  0
 20 55  1  0  0  0  0
 20 56  1  0  0  0  0
 21 22  1  0  0  0  0
 21 57  1  0  0  0  0
 21 58  1  0  0  0  0
 22 59  1  0  0  0  0
 22 60  1  0  0  0  0
 22 61  1  0  0  0  0
 23 24  1  0  0  0  0
 23 62  1  0  0  0  0
 23 63  1  0  0  0  0
 24 64  1  0  0  0  0
 24 65  1  0  0  0  0
 25 26  1  0  0  0  0
 25 66  1  0  0  0  0
 25 67  1  0  0  0  0
 26 68  1  0  0  0  0
 26 69  1  0  0  0  0
M  END
$$$$
