
 OpenBabel04232216483D

 64 65  0  0  0  0  0  0  0  0999 V2000
   11.0543   -3.0715    0.1604 C   0  0  0  0  0  0  0  0  0  0  0  0
    9.5684   -3.1717    0.3973 C   0  0  0  0  0  0  0  0  0  0  0  0
    8.7803   -2.2919   -0.5031 C   0  0  0  0  0  3  0  0  0  0  0  0
    7.3237   -2.2444   -0.6085 C   0  0  0  0  0  0  0  0  0  0  0  0
    6.6592   -1.8546    0.4996 C   0  0  0  0  0  0  0  0  0  0  0  0
    5.5623   -2.2145    1.1770 N   0  0  0  0  0  0  0  0  0  0  0  0
    4.8582   -3.3942    0.5356 C   0  0  0  0  0  0  0  0  0  0  0  0
    3.6868   -4.0537    1.2490 C   0  0  0  0  0  0  0  0  0  0  0  0
    2.3757   -3.2961    1.1500 C   0  0  0  0  0  0  0  0  0  0  0  0
    7.2531   -1.3314    1.6713 C   0  0  0  0  0  0  0  0  0  0  0  0
    6.4518   -2.3739    2.3980 C   0  0  0  0  0  0  0  0  0  0  0  0
    6.2189   -1.8227    3.8439 C   0  0  0  0  0  0  0  0  0  0  0  0
    5.7467   -0.3832    4.0872 C   0  0  0  0  0  0  0  0  0  0  0  0
    5.8018    0.0121    5.5907 C   0  0  0  0  0  0  0  0  0  0  0  0
    7.2199    0.2107    6.1705 C   0  0  0  0  0  0  0  0  0  0  0  0
    7.1894    0.7381    7.6147 C   0  0  0  0  0  0  0  0  0  0  0  0
    8.5978    0.9606    8.1890 C   0  0  0  0  0  0  0  0  0  0  0  0
    8.5111    1.4685    9.6293 C   0  0  0  0  0  0  0  0  0  0  0  0
    9.8803    1.7070   10.2688 C   0  0  0  0  0  0  0  0  0  0  0  0
    9.6905    2.2043   11.7031 C   0  0  0  0  0  0  0  0  0  0  0  0
   11.0150    2.4692   12.4109 C   0  0  0  0  0  0  0  0  0  0  0  0
   10.7718    2.9624   13.8294 C   0  0  0  0  0  0  0  0  0  0  0  0
    6.8597   -3.7911    2.4884 C   0  0  0  0  0  0  0  0  0  0  0  0
    7.9139   -4.4229    1.9683 C   0  0  0  0  0  0  0  0  0  0  0  0
    9.1587   -4.0025    1.3703 C   0  0  0  0  0  0  0  0  0  0  0  0
   11.4284   -2.0779    0.4343 H   0  0  0  0  0  0  0  0  0  0  0  0
   11.2995   -3.2713   -0.8892 H   0  0  0  0  0  0  0  0  0  0  0  0
   11.6216   -3.8015    0.7580 H   0  0  0  0  0  0  0  0  0  0  0  0
    9.2567   -1.3306   -0.6921 H   0  0  0  0  0  0  0  0  0  0  0  0
    6.8659   -2.8246   -1.3931 H   0  0  0  0  0  0  0  0  0  0  0  0
    5.5828   -4.1930    0.3411 H   0  0  0  0  0  0  0  0  0  0  0  0
    4.5195   -3.0851   -0.4589 H   0  0  0  0  0  0  0  0  0  0  0  0
    3.9115   -4.2891    2.2939 H   0  0  0  0  0  0  0  0  0  0  0  0
    3.5201   -5.0173    0.7527 H   0  0  0  0  0  0  0  0  0  0  0  0
    2.4144   -2.3662    1.7266 H   0  0  0  0  0  0  0  0  0  0  0  0
    1.5582   -3.9162    1.5492 H   0  0  0  0  0  0  0  0  0  0  0  0
    2.1278   -3.0625    0.1119 H   0  0  0  0  0  0  0  0  0  0  0  0
    7.9749   -0.5630    1.8878 H   0  0  0  0  0  0  0  0  0  0  0  0
    7.2177   -1.8738    4.3123 H   0  0  0  0  0  0  0  0  0  0  0  0
    5.6039   -2.5100    4.4212 H   0  0  0  0  0  0  0  0  0  0  0  0
    4.7129   -0.2924    3.7371 H   0  0  0  0  0  0  0  0  0  0  0  0
    6.3397    0.3443    3.5269 H   0  0  0  0  0  0  0  0  0  0  0  0
    5.2712   -0.7379    6.1902 H   0  0  0  0  0  0  0  0  0  0  0  0
    5.2517    0.9549    5.7120 H   0  0  0  0  0  0  0  0  0  0  0  0
    7.7762    0.9190    5.5460 H   0  0  0  0  0  0  0  0  0  0  0  0
    7.7685   -0.7374    6.1596 H   0  0  0  0  0  0  0  0  0  0  0  0
    6.6487    0.0295    8.2546 H   0  0  0  0  0  0  0  0  0  0  0  0
    6.6374    1.6857    7.6501 H   0  0  0  0  0  0  0  0  0  0  0  0
    9.1408    1.6884    7.5744 H   0  0  0  0  0  0  0  0  0  0  0  0
    9.1654    0.0228    8.1628 H   0  0  0  0  0  0  0  0  0  0  0  0
    7.9560    0.7422   10.2358 H   0  0  0  0  0  0  0  0  0  0  0  0
    7.9400    2.4050    9.6489 H   0  0  0  0  0  0  0  0  0  0  0  0
   10.4444    2.4468    9.6882 H   0  0  0  0  0  0  0  0  0  0  0  0
   10.4635    0.7783   10.2697 H   0  0  0  0  0  0  0  0  0  0  0  0
    9.1179    1.4607   12.2717 H   0  0  0  0  0  0  0  0  0  0  0  0
    9.0946    3.1256   11.6916 H   0  0  0  0  0  0  0  0  0  0  0  0
   11.5923    3.2197   11.8591 H   0  0  0  0  0  0  0  0  0  0  0  0
   11.6140    1.5520   12.4425 H   0  0  0  0  0  0  0  0  0  0  0  0
   10.1960    3.8940   13.8250 H   0  0  0  0  0  0  0  0  0  0  0  0
   11.7212    3.1502   14.3382 H   0  0  0  0  0  0  0  0  0  0  0  0
   10.2134    2.2205   14.4101 H   0  0  0  0  0  0  0  0  0  0  0  0
    6.1133   -4.4164    2.9557 H   0  0  0  0  0  0  0  0  0  0  0  0
    7.8880   -5.5126    2.0937 H   0  0  0  0  0  0  0  0  0  0  0  0
    9.9516   -4.5812    1.8587 H   0  0  0  0  0  0  0  0  0  0  0  0
  1  2  1  0  0  0  0
  1 26  1  0  0  0  0
  1 27  1  0  0  0  0
  1 28  1  0  0  0  0
  2  3  1  0  0  0  0
  2 25  2  3  0  0  0
  3  4  1  0  0  0  0
  3 29  1  0  0  0  0
  4  5  2  3  0  0  0
  4 30  1  0  0  0  0
  5  6  1  0  0  0  0
  5 10  1  0  0  0  0
  6  7  1  0  0  0  0
  6 11  1  0  0  0  0
  7  8  1  0  0  0  0
  7 31  1  0  0  0  0
  7 32  1  0  0  0  0
  8  9  1  0  0  0  0
  8 33  1  0  0  0  0
  8 34  1  0  0  0  0
  9 35  1  0  0  0  0
  9 36  1  0  0  0  0
  9 37  1  0  0  0  0
 10 11  2  0  0  0  0
 10 38  1  0  0  0  0
 11 12  1  0  0  0  0
 11 23  1  0  0  0  0
 12 13  1  0  0  0  0
 12 39  1  0  0  0  0
 12 40  1  0  0  0  0
 13 14  1  0  0  0  0
 13 41  1  0  0  0  0
 13 42  1  0  0  0  0
 14 15  1  0  0  0  0
 14 43  1  0  0  0  0
 14 44  1  0  0  0  0
 15 16  1  0  0  0  0
 15 45  1  0  0  0  0
 15 46  1  0  0  0  0
 16 17  1  0  0  0  0
 16 47  1  0  0  0  0
 16 48  1  0  0  0  0
 17 18  1  0  0  0  0
 17 49  1  0  0  0  0
 17 50  1  0  0  0  0
 18 19  1  0  0  0  0
 18 51  1  0  0  0  0
 18 52  1  0  0  0  0
 19 20  1  0  0  0  0
 19 53  1  0  0  0  0
 19 54  1  0  0  0  0
 20 21  1  0  0  0  0
 20 55  1  0  0  0  0
 20 56  1  0  0  0  0
 21 22  1  0  0  0  0
 21 57  1  0  0  0  0
 21 58  1  0  0  0  0
 22 59  1  0  0  0  0
 22 60  1  0  0  0  0
 22 61  1  0  0  0  0
 23 24  2  3  0  0  0
 23 62  1  0  0  0  0
 24 25  1  0  0  0  0
 24 63  1  0  0  0  0
 25 64  1  0  0  0  0
M  END
$$$$
