
 OpenBabel04232216473D

 50 51  0  0  1  0  0  0  0  0999 V2000
    3.2916   -2.5382   -0.7802 C   0  0  0  0  0  0  0  0  0  0  0  0
    4.5210   -1.8384   -1.3396 C   0  0  0  0  0  0  0  0  0  0  0  0
    4.4443   -0.4857   -1.2405 C   0  0  0  0  0  0  0  0  0  0  0  0
    5.5780    0.4322   -1.3015 C   0  0  0  0  0  0  0  0  0  0  0  0
    6.0791    0.6329   -2.6480 C   0  0  0  0  0  0  0  0  0  0  0  0
    7.2460    1.1405   -3.0729 C   0  0  0  0  0  0  0  0  0  0  0  0
    8.0662    2.1845   -2.4227 C   0  0  0  0  0  0  0  0  0  0  0  0
    7.8760    0.2264   -4.0116 C   0  0  0  0  0  0  0  0  0  0  0  0
    8.5427   -0.8353   -3.4879 C   0  0  0  0  0  0  0  0  0  0  0  0
    9.3340   -0.8806   -2.1157 C   0  0  0  0  0  0  0  0  0  0  0  0
    8.5718   -1.1210   -0.7305 C   0  0  3  0  0  0  0  0  0  0  0  0
    8.8803   -2.4121    0.1061 C   0  0  0  0  0  0  0  0  0  0  0  0
    8.0746   -2.6103    1.4005 C   0  0  0  0  0  0  0  0  0  0  0  0
    8.6149    0.1123    0.1525 C   0  0  0  0  0  0  0  0  0  0  0  0
    9.9626    0.4251    0.7559 C   0  0  0  0  0  0  0  0  0  0  0  0
    7.5223    0.8829    0.3613 C   0  0  0  0  0  0  0  0  0  0  0  0
    6.1723    0.5748   -0.0902 C   0  0  0  0  0  0  0  0  0  0  0  0
    8.2956   -2.1133   -4.1814 C   0  0  0  0  0  0  0  0  0  0  0  0
    7.8998   -3.1388   -3.3980 C   0  0  0  0  0  0  0  0  0  0  0  0
    9.1976   -3.9039   -2.9975 C   0  0  0  0  0  0  0  0  0  0  0  0
    6.7231   -2.8564   -2.4890 C   0  0  0  0  0  0  0  0  0  0  0  0
    5.7351   -2.7214   -1.5606 C   0  0  0  0  0  0  0  0  0  0  0  0
    2.6697   -2.9663   -1.5677 H   0  0  0  0  0  0  0  0  0  0  0  0
    2.6561   -1.8431   -0.2074 H   0  0  0  0  0  0  0  0  0  0  0  0
    3.5794   -3.3114   -0.0616 H   0  0  0  0  0  0  0  0  0  0  0  0
    3.5094    0.0149   -0.9874 H   0  0  0  0  0  0  0  0  0  0  0  0
    5.5554   -0.0386   -3.3445 H   0  0  0  0  0  0  0  0  0  0  0  0
    7.4289    2.8897   -1.8835 H   0  0  0  0  0  0  0  0  0  0  0  0
    8.6375    2.7383   -3.1695 H   0  0  0  0  0  0  0  0  0  0  0  0
    8.7836    1.7675   -1.7279 H   0  0  0  0  0  0  0  0  0  0  0  0
    7.3202    0.1017   -4.9475 H   0  0  0  0  0  0  0  0  0  0  0  0
    9.8768    0.0717   -2.0689 H   0  0  0  0  0  0  0  0  0  0  0  0
   10.1625   -1.5928   -2.2002 H   0  0  0  0  0  0  0  0  0  0  0  0
    7.5422   -1.2385   -1.0039 H   0  0  0  0  0  0  0  0  0  0  0  0
    9.9490   -2.5157    0.3154 H   0  0  0  0  0  0  0  0  0  0  0  0
    8.5970   -3.2938   -0.4564 H   0  0  0  0  0  0  0  0  0  0  0  0
    8.4089   -1.9517    2.2037 H   0  0  0  0  0  0  0  0  0  0  0  0
    8.1951   -3.6444    1.7544 H   0  0  0  0  0  0  0  0  0  0  0  0
    7.0012   -2.4606    1.2448 H   0  0  0  0  0  0  0  0  0  0  0  0
   10.7723    0.1628    0.0655 H   0  0  0  0  0  0  0  0  0  0  0  0
   10.1244   -0.1447    1.6777 H   0  0  0  0  0  0  0  0  0  0  0  0
   10.0661    1.4895    0.9786 H   0  0  0  0  0  0  0  0  0  0  0  0
    7.5965    1.7271    1.0422 H   0  0  0  0  0  0  0  0  0  0  0  0
    5.5878    0.2639    0.7793 H   0  0  0  0  0  0  0  0  0  0  0  0
    7.7620   -2.0108   -5.1292 H   0  0  0  0  0  0  0  0  0  0  0  0
    9.4833   -3.8270   -1.9533 H   0  0  0  0  0  0  0  0  0  0  0  0
   10.0857   -3.4832   -3.5117 H   0  0  0  0  0  0  0  0  0  0  0  0
    9.1768   -4.9579   -3.2695 H   0  0  0  0  0  0  0  0  0  0  0  0
    7.1907   -3.6726   -1.8726 H   0  0  0  0  0  0  0  0  0  0  0  0
    5.8524   -3.2826   -0.6231 H   0  0  0  0  0  0  0  0  0  0  0  0
  1  2  1  0  0  0  0
  1 23  1  0  0  0  0
  1 24  1  0  0  0  0
  1 25  1  0  0  0  0
  2  3  2  3  0  0  0
  2 22  1  0  0  0  0
  3  4  1  0  0  0  0
  3 26  1  0  0  0  0
  4  5  1  0  0  0  0
  4 17  2  3  0  0  0
  5  6  2  3  0  0  0
  5 27  1  0  0  0  0
  6  7  1  0  0  0  0
  6  8  1  0  0  0  0
  7 28  1  0  0  0  0
  7 29  1  0  0  0  0
  7 30  1  0  0  0  0
  8  9  2  3  0  0  0
  8 31  1  0  0  0  0
  9 10  1  0  0  0  0
  9 18  1  0  0  0  0
 10 11  1  0  0  0  0
 10 32  1  0  0  0  0
 10 33  1  0  0  0  0
 11 12  1  0  0  0  0
 11 14  1  0  0  0  0
 11 34  1  0  0  0  0
 12 13  1  0  0  0  0
 12 35  1  0  0  0  0
 12 36  1  0  0  0  0
 13 37  1  0  0  0  0
 13 38  1  0  0  0  0
 13 39  1  0  0  0  0
 14 15  1  0  0  0  0
 14 16  2  3  0  0  0
 15 40  1  0  0  0  0
 15 41  1  0  0  0  0
 15 42  1  0  0  0  0
 16 17  1  0  0  0  0
 16 43  1  0  0  0  0
 17 44  1  0  0  0  0
 18 19  2  3  0  0  0
 18 45  1  0  0  0  0
 19 20  1  0  0  0  0
 19 21  1  0  0  0  0
 20 46  1  0  0  0  0
 20 47  1  0  0  0  0
 20 48  1  0  0  0  0
 21 22  2  3  0  0  0
 21 49  1  0  0  0  0
 22 50  1  0  0  0  0
M  END
$$$$
