
 OpenBabel04232216423D

 67 68  0  0  0  0  0  0  0  0999 V2000
    0.8354  -11.0004    0.5022 C   0  0  0  0  0  0  0  0  0  0  0  0
    0.5384   -9.5012    0.9849 C   0  0  0  0  0  0  0  0  0  0  0  0
    1.2872   -9.0502   -0.1441 C   0  0  0  0  0  0  0  0  0  0  0  0
    2.5142   -9.8215    0.6849 C   0  0  0  0  0  0  0  0  0  0  0  0
    2.1100   -7.6844    0.9076 C   0  0  0  0  0  0  0  0  0  0  0  0
    1.8878   -5.6954    0.1261 C   0  0  0  0  0  0  0  0  0  0  0  0
    3.2459   -4.2590   -0.0808 C   0  0  0  0  0  0  0  0  0  0  0  0
    4.0041   -5.4195   -0.1147 C   0  0  0  0  0  0  0  0  0  0  0  0
    5.0469   -6.3622   -0.1455 C   0  0  0  0  0  0  0  0  0  0  0  0
    4.3608   -7.7069   -0.1342 C   0  0  0  0  0  0  0  0  0  0  0  0
    5.3764   -8.7162   -0.2077 C   0  0  0  0  0  0  0  0  0  0  0  0
    4.8399  -10.0430   -0.4341 C   0  0  0  0  0  0  0  0  0  0  0  0
    5.5949  -11.0550   -0.0940 C   0  0  0  0  0  0  0  0  0  0  0  0
    5.1295  -12.3553   -0.2762 C   0  0  0  0  0  0  0  0  0  0  0  0
    6.0530  -13.2666   -0.1003 C   0  0  0  0  0  0  0  0  0  0  0  0
    5.7774  -14.6039   -0.3002 C   0  0  0  0  0  0  0  0  0  0  0  0
    6.7721  -15.4454   -0.1133 C   0  0  0  0  0  0  0  0  0  0  0  0
    6.6241  -16.7499   -0.5301 C   0  0  0  0  0  0  0  0  0  0  0  0
    7.5195  -17.6759   -0.2048 C   0  0  0  0  0  0  0  0  0  0  0  0
    7.3482  -18.9474   -0.7666 C   0  0  0  0  0  0  0  0  0  0  0  0
    7.9876  -20.1072   -0.6549 C   0  0  0  0  0  0  0  0  0  0  0  0
    7.1382  -21.1955   -1.1807 C   0  0  0  0  0  0  0  0  0  0  0  0
    7.0489  -22.2897   -0.4006 C   0  0  0  0  0  0  0  0  0  0  0  0
    5.7757  -22.1911    0.5465 C   0  0  0  0  0  0  0  0  0  0  0  0
    5.7679  -21.0572    1.4524 C   0  0  0  0  0  0  0  0  0  0  0  0
    4.8094  -19.4039    1.1700 C   0  0  0  0  0  0  0  0  0  0  0  0
    4.3911  -17.6332    1.3339 C   0  0  0  0  0  0  0  0  0  0  0  0
    3.3726  -15.8473    0.6305 C   0  0  0  0  0  0  0  0  0  0  0  0
    3.6506  -17.4403   -0.7072 C   0  0  0  0  0  0  0  0  0  0  0  0
    3.0005  -13.9658    0.7574 N   0  0  0  0  0  0  0  0  0  0  0  0
    2.4119  -11.9286    0.6100 N   0  0  0  0  0  0  0  0  0  0  0  0
    0.8365  -10.8595   -0.5877 H   0  0  0  0  0  0  0  0  0  0  0  0
   -0.2165   -8.5529    1.0186 H   0  0  0  0  0  0  0  0  0  0  0  0
    0.9348   -7.7965   -0.4611 H   0  0  0  0  0  0  0  0  0  0  0  0
    1.9237   -7.2998    1.9771 H   0  0  0  0  0  0  0  0  0  0  0  0
    2.8583   -6.9306    0.8613 H   0  0  0  0  0  0  0  0  0  0  0  0
    1.4212   -5.1587   -0.9084 H   0  0  0  0  0  0  0  0  0  0  0  0
    1.4102   -4.8752    0.7847 H   0  0  0  0  0  0  0  0  0  0  0  0
    3.5822   -3.6126    0.7617 H   0  0  0  0  0  0  0  0  0  0  0  0
    3.5949   -3.6732   -1.0183 H   0  0  0  0  0  0  0  0  0  0  0  0
    3.5033   -5.7484   -1.0466 H   0  0  0  0  0  0  0  0  0  0  0  0
    3.7904   -5.4701    0.9744 H   0  0  0  0  0  0  0  0  0  0  0  0
    5.5009   -6.2095    0.8302 H   0  0  0  0  0  0  0  0  0  0  0  0
    5.4377   -6.1734   -1.1298 H   0  0  0  0  0  0  0  0  0  0  0  0
    3.6016   -7.8269   -0.9385 H   0  0  0  0  0  0  0  0  0  0  0  0
    4.0327   -7.8800    0.9000 H   0  0  0  0  0  0  0  0  0  0  0  0
    5.8471   -8.5955    0.7811 H   0  0  0  0  0  0  0  0  0  0  0  0
    5.8976   -8.4376   -1.1009 H   0  0  0  0  0  0  0  0  0  0  0  0
    3.8930  -10.2528   -0.9108 H   0  0  0  0  0  0  0  0  0  0  0  0
    6.6145  -10.8610    0.1974 H   0  0  0  0  0  0  0  0  0  0  0  0
    4.1244  -12.6057   -0.5831 H   0  0  0  0  0  0  0  0  0  0  0  0
    7.0722  -12.9947    0.0909 H   0  0  0  0  0  0  0  0  0  0  0  0
    4.8040  -14.8448   -0.6948 H   0  0  0  0  0  0  0  0  0  0  0  0
    7.7744  -15.1888    0.1586 H   0  0  0  0  0  0  0  0  0  0  0  0
    5.7638  -16.8218   -1.1843 H   0  0  0  0  0  0  0  0  0  0  0  0
    8.3739  -17.4569    0.4063 H   0  0  0  0  0  0  0  0  0  0  0  0
    6.4942  -18.9443   -1.4227 H   0  0  0  0  0  0  0  0  0  0  0  0
    8.8709  -20.2462   -0.0294 H   0  0  0  0  0  0  0  0  0  0  0  0
    6.2112  -20.8298   -1.6480 H   0  0  0  0  0  0  0  0  0  0  0  0
    8.0655  -22.5035   -0.0108 H   0  0  0  0  0  0  0  0  0  0  0  0
    5.2380  -23.1830    0.7256 H   0  0  0  0  0  0  0  0  0  0  0  0
    6.8467  -21.5830    1.7845 H   0  0  0  0  0  0  0  0  0  0  0  0
    4.5346  -20.1676    0.3374 H   0  0  0  0  0  0  0  0  0  0  0  0
    5.5623  -17.7406    1.5840 H   0  0  0  0  0  0  0  0  0  0  0  0
    4.2631  -18.5054   -1.1100 H   0  0  0  0  0  0  0  0  0  0  0  0
    4.7896  -17.8323   -0.4645 H   0  0  0  0  0  0  0  0  0  0  0  0
    3.0956  -18.4607   -0.3055 H   0  0  0  0  0  0  0  0  0  0  0  0
  1  2  2  0  0  0  0
  1 31  1  0  0  0  0
  1 32  1  0  0  0  0
  2  3  1  0  0  0  0
  2 33  1  0  0  0  0
  3  4  2  0  0  0  0
  3 34  1  0  0  0  0
  4  5  1  0  0  0  0
  4 31  1  0  0  0  0
  5  6  1  0  0  0  0
  5 35  1  0  0  0  0
  5 36  1  0  0  0  0
  6  7  1  0  0  0  0
  6 37  1  0  0  0  0
  6 38  1  0  0  0  0
  7  8  1  0  0  0  0
  7 39  1  0  0  0  0
  7 40  1  0  0  0  0
  8  9  1  0  0  0  0
  8 41  1  0  0  0  0
  8 42  1  0  0  0  0
  9 10  1  0  0  0  0
  9 43  1  0  0  0  0
  9 44  1  0  0  0  0
 10 11  1  0  0  0  0
 10 45  1  0  0  0  0
 10 46  1  0  0  0  0
 11 12  1  0  0  0  0
 11 47  1  0  0  0  0
 11 48  1  0  0  0  0
 12 13  2  3  0  0  0
 12 49  1  0  0  0  0
 13 14  1  0  0  0  0
 13 50  1  0  0  0  0
 14 15  2  3  0  0  0
 14 51  1  0  0  0  0
 15 16  1  0  0  0  0
 15 52  1  0  0  0  0
 16 17  2  3  0  0  0
 16 53  1  0  0  0  0
 17 18  1  0  0  0  0
 17 54  1  0  0  0  0
 18 19  2  3  0  0  0
 18 55  1  0  0  0  0
 19 20  1  0  0  0  0
 19 56  1  0  0  0  0
 20 21  2  3  0  0  0
 20 57  1  0  0  0  0
 21 22  1  0  0  0  0
 21 58  1  0  0  0  0
 22 23  2  3  0  0  0
 22 59  1  0  0  0  0
 23 24  1  0  0  0  0
 23 60  1  0  0  0  0
 24 25  2  3  0  0  0
 24 61  1  0  0  0  0
 25 26  1  0  0  0  0
 25 62  1  0  0  0  0
 26 27  2  3  0  0  0
 26 63  1  0  0  0  0
 27 28  1  0  0  0  0
 27 64  1  0  0  0  0
 28 29  1  0  0  0  0
 28 30  2  3  0  0  0
 29 65  1  0  0  0  0
 29 66  1  0  0  0  0
 29 67  1  0  0  0  0
 30 31  1  0  0  0  0
M  END
$$$$
