
 OpenBabel04232216523D

 47 48  0  0  1  0  0  0  0  0999 V2000
    0.7359    2.3093    0.0552 C   0  0  0  0  0  0  0  0  0  0  0  0
    2.2528    2.3808    0.0039 C   0  0  0  0  0  0  0  0  0  0  0  0
    2.8828    1.1710    0.6936 C   0  0  0  0  0  0  0  0  0  0  0  0
    4.4235    1.2022    0.7099 C   0  0  3  0  0  0  0  0  0  0  0  0
    4.9253    2.4151    1.4552 C   0  0  0  0  0  0  0  0  0  0  0  0
    5.3771    2.3913    2.7253 C   0  0  0  0  0  0  0  0  0  0  0  0
    5.7430    3.6869    3.3993 C   0  0  0  0  0  0  0  0  0  0  0  0
    5.4841    1.0723    3.5162 C   0  0  3  0  0  0  0  0  0  0  0  0
    6.7774    1.0277    4.3547 C   0  0  0  0  0  0  0  0  0  0  0  0
    6.9274   -0.1883    5.2583 C   0  0  0  0  0  0  0  0  0  0  0  0
    6.4431   -1.2923    5.0053 O   0  0  0  0  0  0  0  0  0  0  0  0
    7.7502   -0.0452    6.4838 C   0  0  0  0  0  0  0  0  0  0  0  0
    7.7324   -0.9077    7.5140 C   0  0  0  0  0  0  0  0  0  0  0  0
    6.8583   -2.1050    7.7206 C   0  0  0  0  0  0  0  0  0  0  0  0
    7.5079   -3.3495    7.1637 C   0  0  0  0  0  0  0  0  0  0  0  0
    8.1894   -4.1144    7.8420 O   0  0  0  0  0  0  0  0  0  0  0  0
    8.7134   -0.5038    8.5710 C   0  0  0  0  0  0  0  0  0  0  0  0
    9.5178    0.6152    7.9090 C   0  0  0  0  0  0  0  0  0  0  0  0
    8.7297    1.0609    6.6795 C   0  0  0  0  0  0  0  0  0  0  0  0
    5.3562   -0.1322    2.5960 C   0  0  0  0  0  0  0  0  0  0  0  0
    4.9002   -0.0745    1.3379 C   0  0  0  0  0  0  0  0  0  0  0  0
    0.3026    3.1907   -0.4262 H   0  0  0  0  0  0  0  0  0  0  0  0
    0.3803    2.2786    1.0906 H   0  0  0  0  0  0  0  0  0  0  0  0
    0.3677    1.4183   -0.4620 H   0  0  0  0  0  0  0  0  0  0  0  0
    2.5668    3.3102    0.4903 H   0  0  0  0  0  0  0  0  0  0  0  0
    2.5866    2.4259   -1.0383 H   0  0  0  0  0  0  0  0  0  0  0  0
    2.5408    0.2558    0.1914 H   0  0  0  0  0  0  0  0  0  0  0  0
    2.5038    1.1128    1.7249 H   0  0  0  0  0  0  0  0  0  0  0  0
    4.8146    1.2405   -0.3135 H   0  0  0  0  0  0  0  0  0  0  0  0
    4.8676    3.3579    0.9161 H   0  0  0  0  0  0  0  0  0  0  0  0
    5.5389    4.5537    2.7593 H   0  0  0  0  0  0  0  0  0  0  0  0
    6.8093    3.7180    3.6420 H   0  0  0  0  0  0  0  0  0  0  0  0
    5.1609    3.8170    4.3166 H   0  0  0  0  0  0  0  0  0  0  0  0
    4.6354    1.0373    4.2141 H   0  0  0  0  0  0  0  0  0  0  0  0
    6.7777    1.9024    5.0172 H   0  0  0  0  0  0  0  0  0  0  0  0
    7.6638    1.0900    3.7133 H   0  0  0  0  0  0  0  0  0  0  0  0
    5.8732   -1.9935    7.2556 H   0  0  0  0  0  0  0  0  0  0  0  0
    6.6686   -2.2570    8.7892 H   0  0  0  0  0  0  0  0  0  0  0  0
    7.3660   -3.5260    6.0835 H   0  0  0  0  0  0  0  0  0  0  0  0
    9.3679   -1.3325    8.8579 H   0  0  0  0  0  0  0  0  0  0  0  0
    8.1862   -0.1418    9.4595 H   0  0  0  0  0  0  0  0  0  0  0  0
   10.5027    0.2412    7.6043 H   0  0  0  0  0  0  0  0  0  0  0  0
    9.6904    1.4488    8.5979 H   0  0  0  0  0  0  0  0  0  0  0  0
    9.3903    1.1886    5.8165 H   0  0  0  0  0  0  0  0  0  0  0  0
    8.2117    2.0060    6.8727 H   0  0  0  0  0  0  0  0  0  0  0  0
    5.5915   -1.1200    2.9790 H   0  0  0  0  0  0  0  0  0  0  0  0
    4.8102   -0.9908    0.7601 H   0  0  0  0  0  0  0  0  0  0  0  0
  1  2  1  0  0  0  0
  1 22  1  0  0  0  0
  1 23  1  0  0  0  0
  1 24  1  0  0  0  0
  2  3  1  0  0  0  0
  2 25  1  0  0  0  0
  2 26  1  0  0  0  0
  3  4  1  0  0  0  0
  3 27  1  0  0  0  0
  3 28  1  0  0  0  0
  4  5  1  0  0  0  0
  4 21  1  0  0  0  0
  4 29  1  0  0  0  0
  5  6  2  0  0  0  0
  5 30  1  0  0  0  0
  6  7  1  0  0  0  0
  6  8  1  0  0  0  0
  7 31  1  0  0  0  0
  7 32  1  0  0  0  0
  7 33  1  0  0  0  0
  8  9  1  0  0  0  0
  8 20  1  0  0  0  0
  8 34  1  0  0  0  0
  9 10  1  0  0  0  0
  9 35  1  0  0  0  0
  9 36  1  0  0  0  0
 10 11  2  0  0  0  0
 10 12  1  0  0  0  0
 12 13  2  0  0  0  0
 12 19  1  0  0  0  0
 13 14  1  0  0  0  0
 13 17  1  0  0  0  0
 14 15  1  0  0  0  0
 14 37  1  0  0  0  0
 14 38  1  0  0  0  0
 15 16  2  0  0  0  0
 15 39  1  0  0  0  0
 17 18  1  0  0  0  0
 17 40  1  0  0  0  0
 17 41  1  0  0  0  0
 18 19  1  0  0  0  0
 18 42  1  0  0  0  0
 18 43  1  0  0  0  0
 19 44  1  0  0  0  0
 19 45  1  0  0  0  0
 20 21  2  0  0  0  0
 20 46  1  0  0  0  0
 21 47  1  0  0  0  0
M  END
$$$$
