
 OpenBabel04232216593D

230230  0  0  1  0  0  0  0  0999 V2000
    1.3022    0.0623    0.3972 O   0  0  0  0  0  0  0  0  0  0  0  0
    2.3095    0.0809   -0.2651 C   0  0  0  0  0  0  0  0  0  0  0  0
    3.5334   -0.6978   -0.1653 C   0  0  0  0  0  0  0  0  0  0  0  0
    3.5536    0.8198   -0.1244 C   0  0  3  0  0  0  0  0  0  0  0  0
    3.9865    1.5347    1.1235 C   0  0  0  0  0  0  0  0  0  0  0  0
    3.9127    3.0480    0.9206 C   0  0  0  0  0  0  0  0  0  0  0  0
    4.3472    3.8193    2.1592 C   0  0  0  0  0  0  0  0  0  0  0  0
    4.2577    5.3180    1.8982 C   0  0  0  0  0  0  0  0  0  0  0  0
    4.6900    6.0939    3.1311 C   0  0  0  0  0  0  0  0  0  0  0  0
    4.6007    7.5878    2.8708 C   0  0  0  0  0  0  0  0  0  0  0  0
    5.0357    8.3537    4.1072 C   0  0  0  0  0  0  0  0  0  0  0  0
    4.9475    9.8463    3.8499 C   0  0  0  0  0  0  0  0  0  0  0  0
    5.3828   10.6089    5.0867 C   0  0  0  0  0  0  0  0  0  0  0  0
    5.2944   12.1011    4.8293 C   0  0  0  0  0  0  0  0  0  0  0  0
    5.7297   12.8632    6.0663 C   0  0  0  0  0  0  0  0  0  0  0  0
    5.6414   14.3552    5.8089 C   0  0  0  0  0  0  0  0  0  0  0  0
    6.0785   15.1174    7.0451 C   0  0  0  0  0  0  0  0  0  0  0  0
    5.9901   16.6094    6.7875 C   0  0  0  0  0  0  0  0  0  0  0  0
    6.4272   17.3717    8.0235 C   0  0  0  0  0  0  0  0  0  0  0  0
    6.3387   18.8636    7.7659 C   0  0  0  0  0  0  0  0  0  0  0  0
    6.7758   19.6260    9.0020 C   0  0  0  0  0  0  0  0  0  0  0  0
    6.6874   21.1179    8.7443 C   0  0  0  0  0  0  0  0  0  0  0  0
    7.1245   21.8803    9.9804 C   0  0  0  0  0  0  0  0  0  0  0  0
    7.0360   23.3723    9.7227 C   0  0  0  0  0  0  0  0  0  0  0  0
    7.4731   24.1347   10.9587 C   0  0  0  0  0  0  0  0  0  0  0  0
    7.3847   25.6266   10.7011 C   0  0  0  0  0  0  0  0  0  0  0  0
    7.8199   26.3890   11.9378 C   0  0  0  0  0  0  0  0  0  0  0  0
    7.7314   27.8810   11.6802 C   0  0  0  0  0  0  0  0  0  0  0  0
    8.1685   28.6434   12.9162 C   0  0  0  0  0  0  0  0  0  0  0  0
    8.0801   30.1354   12.6586 C   0  0  0  0  0  0  0  0  0  0  0  0
    8.5153   30.8978   13.8953 C   0  0  0  0  0  0  0  0  0  0  0  0
    8.4268   32.3898   13.6377 C   0  0  0  0  0  0  0  0  0  0  0  0
    8.8601   33.1522   14.8751 C   0  0  0  0  0  0  0  0  0  0  0  0
    8.7698   34.6441   14.6181 C   0  0  0  0  0  0  0  0  0  0  0  0
    9.2050   35.4065   15.8548 C   0  0  0  0  0  0  0  0  0  0  0  0
    9.1146   36.8985   15.5978 C   0  0  0  0  0  0  0  0  0  0  0  0
    9.5498   37.6609   16.8346 C   0  0  0  0  0  0  0  0  0  0  0  0
    9.4595   39.1529   16.5776 C   0  0  0  0  0  0  0  0  0  0  0  0
    9.8947   39.9153   17.8143 C   0  0  0  0  0  0  0  0  0  0  0  0
    9.8043   41.4073   17.5573 C   0  0  0  0  0  0  0  0  0  0  0  0
   10.2414   42.1697   18.7934 C   0  0  0  0  0  0  0  0  0  0  0  0
   10.1492   43.6616   18.5371 C   0  0  0  0  0  0  0  0  0  0  0  0
   10.5844   44.4240   19.7738 C   0  0  0  0  0  0  0  0  0  0  0  0
   10.4902   45.9160   19.5182 C   0  0  0  0  0  0  0  0  0  0  0  0
   10.9235   46.6784   20.7556 C   0  0  0  0  0  0  0  0  0  0  0  0
   10.8275   48.1704   20.5006 C   0  0  0  0  0  0  0  0  0  0  0  0
   11.2626   48.9328   21.7374 C   0  0  0  0  0  0  0  0  0  0  0  0
   11.1666   50.4247   21.4824 C   0  0  0  0  0  0  0  0  0  0  0  0
   11.6018   51.1872   22.7191 C   0  0  0  0  0  0  0  0  0  0  0  0
   11.5057   52.6791   22.4641 C   0  0  0  0  0  0  0  0  0  0  0  0
   11.9390   53.4415   23.7015 C   0  0  0  0  0  0  0  0  0  0  0  0
   11.8430   54.9335   23.4466 C   0  0  0  0  0  0  0  0  0  0  0  0
   12.2744   55.6959   24.6846 C   0  0  0  0  0  0  0  0  0  0  0  0
   12.1783   57.1878   24.4297 C   0  0  0  0  0  0  0  0  0  0  0  0
   12.6078   57.9502   25.6684 C   0  0  0  0  0  0  0  0  0  0  0  0
   12.5117   59.4422   25.4134 C   0  0  0  0  0  0  0  0  0  0  0  0
   12.9431   60.2046   26.6515 C   0  0  0  0  0  0  0  0  0  0  0  0
   12.8452   61.6965   26.3972 C   0  0  0  0  0  0  0  0  0  0  0  0
   13.2784   62.4589   27.6346 C   0  0  0  0  0  0  0  0  0  0  0  0
   13.1786   63.9508   27.3810 C   0  0  0  0  0  0  0  0  0  0  0  0
   13.6100   64.7132   28.6190 C   0  0  0  0  0  0  0  0  0  0  0  0
   13.5119   66.2051   28.3647 C   0  0  0  0  0  0  0  0  0  0  0  0
   13.9452   66.9673   29.6021 C   0  0  0  0  0  0  0  0  0  0  0  0
   13.8453   68.4591   29.3483 C   0  0  0  0  0  0  0  0  0  0  0  0
   14.2809   69.2216   30.5852 C   0  0  0  0  0  0  0  0  0  0  0  0
   14.1806   70.7134   30.3320 C   0  0  0  0  0  0  0  0  0  0  0  0
   14.6160   71.4743   31.5683 C   0  0  0  0  0  0  0  0  0  0  0  0
   14.5156   72.9672   31.3153 C   0  0  0  0  0  0  0  0  0  0  0  0
   14.9544   73.7308   32.5501 C   0  0  0  0  0  0  0  0  0  0  0  0
   14.8553   75.2236   32.2967 C   0  0  0  0  0  0  0  0  0  0  0  0
   15.2964   75.9867   33.5319 C   0  0  0  0  0  0  0  0  0  0  0  0
   15.1970   77.4801   33.2805 C   0  0  0  0  0  0  0  0  0  0  0  0
   15.6404   78.2449   34.5152 C   0  0  0  0  0  0  0  0  0  0  0  0
   15.5399   79.7398   34.2659 C   0  0  0  0  0  0  0  0  0  0  0  0
   15.9828   80.5077   35.4997 C   0  0  0  0  0  0  0  0  0  0  0  0
   15.8826   82.0071   35.2520 C   0  0  0  0  0  0  0  0  0  0  0  0
   16.3263   82.7866   36.4820 C   0  0  0  0  0  0  0  0  0  0  0  0
   16.2261   84.2799   36.2340 C   0  0  0  0  0  0  0  0  0  0  0  0
    3.8196   -1.2076   -1.0735 H   0  0  0  0  0  0  0  0  0  0  0  0
    3.7203   -1.2418    0.7489 H   0  0  0  0  0  0  0  0  0  0  0  0
    3.8818    1.3357   -1.0171 H   0  0  0  0  0  0  0  0  0  0  0  0
    5.0249    1.2574    1.3476 H   0  0  0  0  0  0  0  0  0  0  0  0
    3.3850    1.2433    1.9942 H   0  0  0  0  0  0  0  0  0  0  0  0
    2.8903    3.3342    0.6461 H   0  0  0  0  0  0  0  0  0  0  0  0
    4.5569    3.3349    0.0789 H   0  0  0  0  0  0  0  0  0  0  0  0
    5.3776    3.5547    2.4269 H   0  0  0  0  0  0  0  0  0  0  0  0
    3.7103    3.5543    3.0113 H   0  0  0  0  0  0  0  0  0  0  0  0
    3.2296    5.5918    1.6310 H   0  0  0  0  0  0  0  0  0  0  0  0
    4.8955    5.5907    1.0478 H   0  0  0  0  0  0  0  0  0  0  0  0
    5.7189    5.8250    3.3999 H   0  0  0  0  0  0  0  0  0  0  0  0
    4.0515    5.8273    3.9821 H   0  0  0  0  0  0  0  0  0  0  0  0
    3.5720    7.8615    2.6056 H   0  0  0  0  0  0  0  0  0  0  0  0
    5.2382    7.8596    2.0203 H   0  0  0  0  0  0  0  0  0  0  0  0
    6.0645    8.0811    4.3733 H   0  0  0  0  0  0  0  0  0  0  0  0
    4.3983    8.0834    4.9580 H   0  0  0  0  0  0  0  0  0  0  0  0
    3.9188   10.1201    3.5848 H   0  0  0  0  0  0  0  0  0  0  0  0
    5.5852   10.1179    2.9996 H   0  0  0  0  0  0  0  0  0  0  0  0
    6.4116   10.3357    5.3521 H   0  0  0  0  0  0  0  0  0  0  0  0
    4.7452   10.3380    5.9373 H   0  0  0  0  0  0  0  0  0  0  0  0
    4.2659   12.3749    4.5640 H   0  0  0  0  0  0  0  0  0  0  0  0
    5.9322   12.3727    3.9791 H   0  0  0  0  0  0  0  0  0  0  0  0
    6.7584   12.5896    6.3317 H   0  0  0  0  0  0  0  0  0  0  0  0
    5.0920   12.5919    6.9167 H   0  0  0  0  0  0  0  0  0  0  0  0
    4.6124   14.6290    5.5449 H   0  0  0  0  0  0  0  0  0  0  0  0
    6.2780   14.6264    4.9577 H   0  0  0  0  0  0  0  0  0  0  0  0
    7.1075   14.8436    7.3091 H   0  0  0  0  0  0  0  0  0  0  0  0
    5.4419   14.8463    7.8964 H   0  0  0  0  0  0  0  0  0  0  0  0
    4.9611   16.8831    6.5234 H   0  0  0  0  0  0  0  0  0  0  0  0
    6.6267   16.8804    5.9361 H   0  0  0  0  0  0  0  0  0  0  0  0
    7.4561   17.0979    8.2875 H   0  0  0  0  0  0  0  0  0  0  0  0
    5.7906   17.1006    8.8749 H   0  0  0  0  0  0  0  0  0  0  0  0
    5.3097   19.1373    7.5019 H   0  0  0  0  0  0  0  0  0  0  0  0
    6.9753   19.1346    6.9146 H   0  0  0  0  0  0  0  0  0  0  0  0
    7.8048   19.3522    9.2660 H   0  0  0  0  0  0  0  0  0  0  0  0
    6.1392   19.3549    9.8533 H   0  0  0  0  0  0  0  0  0  0  0  0
    5.6584   21.3916    8.4802 H   0  0  0  0  0  0  0  0  0  0  0  0
    7.3240   21.3889    7.8930 H   0  0  0  0  0  0  0  0  0  0  0  0
    8.1534   21.6066   10.2444 H   0  0  0  0  0  0  0  0  0  0  0  0
    6.4879   21.6093   10.8317 H   0  0  0  0  0  0  0  0  0  0  0  0
    6.0071   23.6460    9.4586 H   0  0  0  0  0  0  0  0  0  0  0  0
    7.6726   23.6433    8.8714 H   0  0  0  0  0  0  0  0  0  0  0  0
    8.5021   23.8610   11.2228 H   0  0  0  0  0  0  0  0  0  0  0  0
    6.8365   23.8636   11.8100 H   0  0  0  0  0  0  0  0  0  0  0  0
    6.3560   25.9002   10.4357 H   0  0  0  0  0  0  0  0  0  0  0  0
    8.0224   25.8978    9.8507 H   0  0  0  0  0  0  0  0  0  0  0  0
    8.8485   26.1155   12.2032 H   0  0  0  0  0  0  0  0  0  0  0  0
    7.1822   26.1178   12.7882 H   0  0  0  0  0  0  0  0  0  0  0  0
    6.7025   28.1547   11.4161 H   0  0  0  0  0  0  0  0  0  0  0  0
    8.3680   28.1521   10.8289 H   0  0  0  0  0  0  0  0  0  0  0  0
    9.1975   28.3697   13.1803 H   0  0  0  0  0  0  0  0  0  0  0  0
    7.5319   28.3724   13.7675 H   0  0  0  0  0  0  0  0  0  0  0  0
    7.0514   30.4089   12.3932 H   0  0  0  0  0  0  0  0  0  0  0  0
    8.7178   30.4066   11.8082 H   0  0  0  0  0  0  0  0  0  0  0  0
    9.5440   30.6243   14.1608 H   0  0  0  0  0  0  0  0  0  0  0  0
    7.8776   30.6265   14.7457 H   0  0  0  0  0  0  0  0  0  0  0  0
    7.3985   32.6630   13.3708 H   0  0  0  0  0  0  0  0  0  0  0  0
    9.0656   32.6612   12.7882 H   0  0  0  0  0  0  0  0  0  0  0  0
    9.8890   32.8799   15.1410 H   0  0  0  0  0  0  0  0  0  0  0  0
    8.2222   32.8797   15.7249 H   0  0  0  0  0  0  0  0  0  0  0  0
    7.7406   34.9165   14.3535 H   0  0  0  0  0  0  0  0  0  0  0  0
    9.4066   34.9165   13.7673 H   0  0  0  0  0  0  0  0  0  0  0  0
   10.2341   35.1341   16.1194 H   0  0  0  0  0  0  0  0  0  0  0  0
    8.5682   35.1342   16.7056 H   0  0  0  0  0  0  0  0  0  0  0  0
    8.0855   37.1709   15.3332 H   0  0  0  0  0  0  0  0  0  0  0  0
    9.7514   37.1708   14.7471 H   0  0  0  0  0  0  0  0  0  0  0  0
   10.5790   37.3885   17.0992 H   0  0  0  0  0  0  0  0  0  0  0  0
    8.9130   37.3886   17.6853 H   0  0  0  0  0  0  0  0  0  0  0  0
    8.4303   39.4253   16.3130 H   0  0  0  0  0  0  0  0  0  0  0  0
   10.0963   39.4252   15.7268 H   0  0  0  0  0  0  0  0  0  0  0  0
   10.9238   39.6429   18.0789 H   0  0  0  0  0  0  0  0  0  0  0  0
    9.2579   39.6430   18.6651 H   0  0  0  0  0  0  0  0  0  0  0  0
    8.7748   41.6798   17.2941 H   0  0  0  0  0  0  0  0  0  0  0  0
   10.4400   41.6794   16.7057 H   0  0  0  0  0  0  0  0  0  0  0  0
   11.2714   41.8981   19.0558 H   0  0  0  0  0  0  0  0  0  0  0  0
    9.6066   41.8965   19.6454 H   0  0  0  0  0  0  0  0  0  0  0  0
    9.1195   43.9330   18.2734 H   0  0  0  0  0  0  0  0  0  0  0  0
   10.7850   43.9351   17.6860 H   0  0  0  0  0  0  0  0  0  0  0  0
   11.6145   44.1538   20.0368 H   0  0  0  0  0  0  0  0  0  0  0  0
    9.9494   44.1496   20.6252 H   0  0  0  0  0  0  0  0  0  0  0  0
    9.4603   46.1861   19.2539 H   0  0  0  0  0  0  0  0  0  0  0  0
   11.1263   46.1907   18.6676 H   0  0  0  0  0  0  0  0  0  0  0  0
   11.9539   46.4094   21.0190 H   0  0  0  0  0  0  0  0  0  0  0  0
   10.2884   46.4027   21.6065 H   0  0  0  0  0  0  0  0  0  0  0  0
    9.7968   48.4395   20.2385 H   0  0  0  0  0  0  0  0  0  0  0  0
   11.4615   48.4460   19.6488 H   0  0  0  0  0  0  0  0  0  0  0  0
   12.2933   48.6636   21.9994 H   0  0  0  0  0  0  0  0  0  0  0  0
   10.6286   48.6572   22.5891 H   0  0  0  0  0  0  0  0  0  0  0  0
   10.1359   50.6939   21.2203 H   0  0  0  0  0  0  0  0  0  0  0  0
   11.8006   50.7003   20.6306 H   0  0  0  0  0  0  0  0  0  0  0  0
   12.6324   50.9180   22.9812 H   0  0  0  0  0  0  0  0  0  0  0  0
   10.9677   50.9116   23.5709 H   0  0  0  0  0  0  0  0  0  0  0  0
   10.4754   52.9481   22.2007 H   0  0  0  0  0  0  0  0  0  0  0  0
   12.1409   52.9549   21.6132 H   0  0  0  0  0  0  0  0  0  0  0  0
   12.9694   53.1726   23.9650 H   0  0  0  0  0  0  0  0  0  0  0  0
   11.3039   53.1657   24.5524 H   0  0  0  0  0  0  0  0  0  0  0  0
   10.8129   55.2022   23.1817 H   0  0  0  0  0  0  0  0  0  0  0  0
   12.4792   55.2095   22.5966 H   0  0  0  0  0  0  0  0  0  0  0  0
   13.3044   55.4271   24.9496 H   0  0  0  0  0  0  0  0  0  0  0  0
   11.6381   55.4198   25.5346 H   0  0  0  0  0  0  0  0  0  0  0  0
   11.1485   57.4564   24.1634 H   0  0  0  0  0  0  0  0  0  0  0  0
   12.8157   57.4640   23.5806 H   0  0  0  0  0  0  0  0  0  0  0  0
   13.6375   57.6817   25.9347 H   0  0  0  0  0  0  0  0  0  0  0  0
   11.9704   57.6740   26.5175 H   0  0  0  0  0  0  0  0  0  0  0  0
   11.4816   59.7109   25.1485 H   0  0  0  0  0  0  0  0  0  0  0  0
   13.1480   59.7182   24.5635 H   0  0  0  0  0  0  0  0  0  0  0  0
   13.9737   59.9369   26.9156 H   0  0  0  0  0  0  0  0  0  0  0  0
   12.3078   59.9275   27.5018 H   0  0  0  0  0  0  0  0  0  0  0  0
   11.8143   61.9643   26.1346 H   0  0  0  0  0  0  0  0  0  0  0  0
   13.4794   61.9734   25.5460 H   0  0  0  0  0  0  0  0  0  0  0  0
   14.3098   62.1921   27.8964 H   0  0  0  0  0  0  0  0  0  0  0  0
   12.6451   62.1810   28.4862 H   0  0  0  0  0  0  0  0  0  0  0  0
   12.1475   64.2175   27.1179 H   0  0  0  0  0  0  0  0  0  0  0  0
   13.8130   64.2290   26.5303 H   0  0  0  0  0  0  0  0  0  0  0  0
   14.6406   64.4457   28.8830 H   0  0  0  0  0  0  0  0  0  0  0  0
   12.9748   64.4361   29.4694 H   0  0  0  0  0  0  0  0  0  0  0  0
   12.4811   66.4730   28.1021 H   0  0  0  0  0  0  0  0  0  0  0  0
   14.1462   66.4821   27.5136 H   0  0  0  0  0  0  0  0  0  0  0  0
   14.9766   66.7006   29.8639 H   0  0  0  0  0  0  0  0  0  0  0  0
   13.3120   66.6896   30.4537 H   0  0  0  0  0  0  0  0  0  0  0  0
   12.8136   68.7262   29.0882 H   0  0  0  0  0  0  0  0  0  0  0  0
   14.4773   68.7369   28.4958 H   0  0  0  0  0  0  0  0  0  0  0  0
   15.3127   68.9545   30.8445 H   0  0  0  0  0  0  0  0  0  0  0  0
   13.6492   68.9433   31.4379 H   0  0  0  0  0  0  0  0  0  0  0  0
   13.1486   70.9801   30.0725 H   0  0  0  0  0  0  0  0  0  0  0  0
   14.8118   70.9903   29.4781 H   0  0  0  0  0  0  0  0  0  0  0  0
   15.6469   71.2043   31.8323 H   0  0  0  0  0  0  0  0  0  0  0  0
   13.9840   71.1971   32.4208 H   0  0  0  0  0  0  0  0  0  0  0  0
   13.4827   73.2340   31.0592 H   0  0  0  0  0  0  0  0  0  0  0  0
   15.1434   73.2471   30.4593 H   0  0  0  0  0  0  0  0  0  0  0  0
   15.9862   73.4622   32.8081 H   0  0  0  0  0  0  0  0  0  0  0  0
   14.3240   73.4532   33.4033 H   0  0  0  0  0  0  0  0  0  0  0  0
   13.8228   75.4914   32.0406 H   0  0  0  0  0  0  0  0  0  0  0  0
   15.4840   75.5011   31.4417 H   0  0  0  0  0  0  0  0  0  0  0  0
   16.3288   75.7180   33.7874 H   0  0  0  0  0  0  0  0  0  0  0  0
   14.6674   75.7086   34.3865 H   0  0  0  0  0  0  0  0  0  0  0  0
   14.1641   77.7472   33.0253 H   0  0  0  0  0  0  0  0  0  0  0  0
   15.8244   77.7564   32.4237 H   0  0  0  0  0  0  0  0  0  0  0  0
   16.6735   77.9758   34.7679 H   0  0  0  0  0  0  0  0  0  0  0  0
   15.0136   77.9648   35.3708 H   0  0  0  0  0  0  0  0  0  0  0  0
   14.5065   80.0047   34.0110 H   0  0  0  0  0  0  0  0  0  0  0  0
   16.1660   80.0157   33.4087 H   0  0  0  0  0  0  0  0  0  0  0  0
   17.0160   80.2401   35.7530 H   0  0  0  0  0  0  0  0  0  0  0  0
   15.3563   80.2288   36.3560 H   0  0  0  0  0  0  0  0  0  0  0  0
   14.8489   82.2695   34.9970 H   0  0  0  0  0  0  0  0  0  0  0  0
   16.5063   82.2804   34.3925 H   0  0  0  0  0  0  0  0  0  0  0  0
   17.3611   82.5252   36.7371 H   0  0  0  0  0  0  0  0  0  0  0  0
   15.7018   82.5143   37.3425 H   0  0  0  0  0  0  0  0  0  0  0  0
   16.8619   84.5763   35.3943 H   0  0  0  0  0  0  0  0  0  0  0  0
   16.5458   84.8343   37.1204 H   0  0  0  0  0  0  0  0  0  0  0  0
   15.1955   84.5654   36.0021 H   0  0  0  0  0  0  0  0  0  0  0  0
  1  2  2  0  0  0  0
  2  3  1  0  0  0  0
  2  4  1  0  0  0  0
  3  4  1  0  0  0  0
  3 79  1  0  0  0  0
  3 80  1  0  0  0  0
  4  5  1  0  0  0  0
  4 81  1  0  0  0  0
  5  6  1  0  0  0  0
  5 82  1  0  0  0  0
  5 83  1  0  0  0  0
  6  7  1  0  0  0  0
  6 84  1  0  0  0  0
  6 85  1  0  0  0  0
  7  8  1  0  0  0  0
  7 86  1  0  0  0  0
  7 87  1  0  0  0  0
  8  9  1  0  0  0  0
  8 88  1  0  0  0  0
  8 89  1  0  0  0  0
  9 10  1  0  0  0  0
  9 90  1  0  0  0  0
  9 91  1  0  0  0  0
 10 11  1  0  0  0  0
 10 92  1  0  0  0  0
 10 93  1  0  0  0  0
 11 12  1  0  0  0  0
 11 94  1  0  0  0  0
 11 95  1  0  0  0  0
 12 13  1  0  0  0  0
 12 96  1  0  0  0  0
 12 97  1  0  0  0  0
 13 14  1  0  0  0  0
 13 98  1  0  0  0  0
 13 99  1  0  0  0  0
 14 15  1  0  0  0  0
 14100  1  0  0  0  0
 14101  1  0  0  0  0
 15 16  1  0  0  0  0
 15102  1  0  0  0  0
 15103  1  0  0  0  0
 16 17  1  0  0  0  0
 16104  1  0  0  0  0
 16105  1  0  0  0  0
 17 18  1  0  0  0  0
 17106  1  0  0  0  0
 17107  1  0  0  0  0
 18 19  1  0  0  0  0
 18108  1  0  0  0  0
 18109  1  0  0  0  0
 19 20  1  0  0  0  0
 19110  1  0  0  0  0
 19111  1  0  0  0  0
 20 21  1  0  0  0  0
 20112  1  0  0  0  0
 20113  1  0  0  0  0
 21 22  1  0  0  0  0
 21114  1  0  0  0  0
 21115  1  0  0  0  0
 22 23  1  0  0  0  0
 22116  1  0  0  0  0
 22117  1  0  0  0  0
 23 24  1  0  0  0  0
 23118  1  0  0  0  0
 23119  1  0  0  0  0
 24 25  1  0  0  0  0
 24120  1  0  0  0  0
 24121  1  0  0  0  0
 25 26  1  0  0  0  0
 25122  1  0  0  0  0
 25123  1  0  0  0  0
 26 27  1  0  0  0  0
 26124  1  0  0  0  0
 26125  1  0  0  0  0
 27 28  1  0  0  0  0
 27126  1  0  0  0  0
 27127  1  0  0  0  0
 28 29  1  0  0  0  0
 28128  1  0  0  0  0
 28129  1  0  0  0  0
 29 30  1  0  0  0  0
 29130  1  0  0  0  0
 29131  1  0  0  0  0
 30 31  1  0  0  0  0
 30132  1  0  0  0  0
 30133  1  0  0  0  0
 31 32  1  0  0  0  0
 31134  1  0  0  0  0
 31135  1  0  0  0  0
 32 33  1  0  0  0  0
 32136  1  0  0  0  0
 32137  1  0  0  0  0
 33 34  1  0  0  0  0
 33138  1  0  0  0  0
 33139  1  0  0  0  0
 34 35  1  0  0  0  0
 34140  1  0  0  0  0
 34141  1  0  0  0  0
 35 36  1  0  0  0  0
 35142  1  0  0  0  0
 35143  1  0  0  0  0
 36 37  1  0  0  0  0
 36144  1  0  0  0  0
 36145  1  0  0  0  0
 37 38  1  0  0  0  0
 37146  1  0  0  0  0
 37147  1  0  0  0  0
 38 39  1  0  0  0  0
 38148  1  0  0  0  0
 38149  1  0  0  0  0
 39 40  1  0  0  0  0
 39150  1  0  0  0  0
 39151  1  0  0  0  0
 40 41  1  0  0  0  0
 40152  1  0  0  0  0
 40153  1  0  0  0  0
 41 42  1  0  0  0  0
 41154  1  0  0  0  0
 41155  1  0  0  0  0
 42 43  1  0  0  0  0
 42156  1  0  0  0  0
 42157  1  0  0  0  0
 43 44  1  0  0  0  0
 43158  1  0  0  0  0
 43159  1  0  0  0  0
 44 45  1  0  0  0  0
 44160  1  0  0  0  0
 44161  1  0  0  0  0
 45 46  1  0  0  0  0
 45162  1  0  0  0  0
 45163  1  0  0  0  0
 46 47  1  0  0  0  0
 46164  1  0  0  0  0
 46165  1  0  0  0  0
 47 48  1  0  0  0  0
 47166  1  0  0  0  0
 47167  1  0  0  0  0
 48 49  1  0  0  0  0
 48168  1  0  0  0  0
 48169  1  0  0  0  0
 49 50  1  0  0  0  0
 49170  1  0  0  0  0
 49171  1  0  0  0  0
 50 51  1  0  0  0  0
 50172  1  0  0  0  0
 50173  1  0  0  0  0
 51 52  1  0  0  0  0
 51174  1  0  0  0  0
 51175  1  0  0  0  0
 52 53  1  0  0  0  0
 52176  1  0  0  0  0
 52177  1  0  0  0  0
 53 54  1  0  0  0  0
 53178  1  0  0  0  0
 53179  1  0  0  0  0
 54 55  1  0  0  0  0
 54180  1  0  0  0  0
 54181  1  0  0  0  0
 55 56  1  0  0  0  0
 55182  1  0  0  0  0
 55183  1  0  0  0  0
 56 57  1  0  0  0  0
 56184  1  0  0  0  0
 56185  1  0  0  0  0
 57 58  1  0  0  0  0
 57186  1  0  0  0  0
 57187  1  0  0  0  0
 58 59  1  0  0  0  0
 58188  1  0  0  0  0
 58189  1  0  0  0  0
 59 60  1  0  0  0  0
 59190  1  0  0  0  0
 59191  1  0  0  0  0
 60 61  1  0  0  0  0
 60192  1  0  0  0  0
 60193  1  0  0  0  0
 61 62  1  0  0  0  0
 61194  1  0  0  0  0
 61195  1  0  0  0  0
 62 63  1  0  0  0  0
 62196  1  0  0  0  0
 62197  1  0  0  0  0
 63 64  1  0  0  0  0
 63198  1  0  0  0  0
 63199  1  0  0  0  0
 64 65  1  0  0  0  0
 64200  1  0  0  0  0
 64201  1  0  0  0  0
 65 66  1  0  0  0  0
 65202  1  0  0  0  0
 65203  1  0  0  0  0
 66 67  1  0  0  0  0
 66204  1  0  0  0  0
 66205  1  0  0  0  0
 67 68  1  0  0  0  0
 67206  1  0  0  0  0
 67207  1  0  0  0  0
 68 69  1  0  0  0  0
 68208  1  0  0  0  0
 68209  1  0  0  0  0
 69 70  1  0  0  0  0
 69210  1  0  0  0  0
 69211  1  0  0  0  0
 70 71  1  0  0  0  0
 70212  1  0  0  0  0
 70213  1  0  0  0  0
 71 72  1  0  0  0  0
 71214  1  0  0  0  0
 71215  1  0  0  0  0
 72 73  1  0  0  0  0
 72216  1  0  0  0  0
 72217  1  0  0  0  0
 73 74  1  0  0  0  0
 73218  1  0  0  0  0
 73219  1  0  0  0  0
 74 75  1  0  0  0  0
 74220  1  0  0  0  0
 74221  1  0  0  0  0
 75 76  1  0  0  0  0
 75222  1  0  0  0  0
 75223  1  0  0  0  0
 76 77  1  0  0  0  0
 76224  1  0  0  0  0
 76225  1  0  0  0  0
 77 78  1  0  0  0  0
 77226  1  0  0  0  0
 77227  1  0  0  0  0
 78228  1  0  0  0  0
 78229  1  0  0  0  0
 78230  1  0  0  0  0
M  END
$$$$
