
 OpenBabel04232217013D

230230  0  0  1  0  0  0  0  0999 V2000
    3.0896    3.2079    1.2398 O   0  0  0  0  0  0  0  0  0  0  0  0
    2.4612    2.1785    0.5588 N   0  0  0  0  0  0  0  0  0  0  0  0
    1.1122    1.9413    0.5512 C   0  0  0  0  0  0  0  0  0  0  0  0
    0.7675    0.7155    0.1179 C   0  0  0  0  0  0  0  0  0  0  0  0
    2.1600   -0.2872   -0.2177 S   0  0  0  0  0  0  0  0  0  0  0  0
    3.3009    1.1945   -0.1263 C   0  0  3  0  0  0  0  0  0  0  0  0
    3.5817    1.6561   -1.5610 C   0  0  0  0  0  0  0  0  0  0  0  0
    4.5133    2.8676   -1.5891 C   0  0  0  0  0  0  0  0  0  0  0  0
    4.7712    3.3170   -3.0181 C   0  0  0  0  0  0  0  0  0  0  0  0
    5.6997    4.5212   -3.0167 C   0  0  0  0  0  0  0  0  0  0  0  0
    5.9653    4.9697   -4.4412 C   0  0  0  0  0  0  0  0  0  0  0  0
    6.8921    6.1694   -4.4412 C   0  0  0  0  0  0  0  0  0  0  0  0
    7.1554    6.6139   -5.8671 C   0  0  0  0  0  0  0  0  0  0  0  0
    8.0815    7.8151   -5.8684 C   0  0  0  0  0  0  0  0  0  0  0  0
    8.3442    8.2564   -7.2959 C   0  0  0  0  0  0  0  0  0  0  0  0
    9.2691    9.4570   -7.3026 C   0  0  0  0  0  0  0  0  0  0  0  0
    9.5312    9.8985   -8.7293 C   0  0  0  0  0  0  0  0  0  0  0  0
   10.4570   11.0985   -8.7360 C   0  0  0  0  0  0  0  0  0  0  0  0
   10.7180   11.5422  -10.1620 C   0  0  0  0  0  0  0  0  0  0  0  0
   11.6441   12.7426  -10.1679 C   0  0  0  0  0  0  0  0  0  0  0  0
   11.9045   13.1860  -11.5944 C   0  0  0  0  0  0  0  0  0  0  0  0
   12.8309   14.3867  -11.5994 C   0  0  0  0  0  0  0  0  0  0  0  0
   13.0912   14.8300  -13.0262 C   0  0  0  0  0  0  0  0  0  0  0  0
   14.0176   16.0307  -13.0313 C   0  0  0  0  0  0  0  0  0  0  0  0
   14.2779   16.4741  -14.4579 C   0  0  0  0  0  0  0  0  0  0  0  0
   15.2044   17.6744  -14.4631 C   0  0  0  0  0  0  0  0  0  0  0  0
   15.4647   18.1182  -15.8893 C   0  0  0  0  0  0  0  0  0  0  0  0
   16.3911   19.3184  -15.8948 C   0  0  0  0  0  0  0  0  0  0  0  0
   16.6499   19.7635  -17.3208 C   0  0  0  0  0  0  0  0  0  0  0  0
   17.5762   20.9636  -17.3265 C   0  0  0  0  0  0  0  0  0  0  0  0
   17.8366   21.4075  -18.7525 C   0  0  0  0  0  0  0  0  0  0  0  0
   18.7630   22.6076  -18.7583 C   0  0  0  0  0  0  0  0  0  0  0  0
   19.0250   23.0503  -20.1843 C   0  0  0  0  0  0  0  0  0  0  0  0
   19.9514   24.2504  -20.1901 C   0  0  0  0  0  0  0  0  0  0  0  0
   20.2149   24.6918  -21.6163 C   0  0  0  0  0  0  0  0  0  0  0  0
   21.1429   25.8907  -21.6221 C   0  0  0  0  0  0  0  0  0  0  0  0
   21.4049   26.3334  -23.0482 C   0  0  0  0  0  0  0  0  0  0  0  0
   22.3329   27.5322  -23.0540 C   0  0  0  0  0  0  0  0  0  0  0  0
   22.5949   27.9749  -24.4801 C   0  0  0  0  0  0  0  0  0  0  0  0
   23.5228   29.1738  -24.4859 C   0  0  0  0  0  0  0  0  0  0  0  0
   23.7848   29.6165  -25.9120 C   0  0  0  0  0  0  0  0  0  0  0  0
   24.7128   30.8153  -25.9178 C   0  0  0  0  0  0  0  0  0  0  0  0
   24.9748   31.2580  -27.3439 C   0  0  0  0  0  0  0  0  0  0  0  0
   25.9043   32.4557  -27.3498 C   0  0  0  0  0  0  0  0  0  0  0  0
   26.1648   32.8995  -28.7758 C   0  0  0  0  0  0  0  0  0  0  0  0
   27.0927   34.0984  -28.7816 C   0  0  0  0  0  0  0  0  0  0  0  0
   27.3547   34.5411  -30.2077 C   0  0  0  0  0  0  0  0  0  0  0  0
   28.2811   35.7412  -30.2135 C   0  0  0  0  0  0  0  0  0  0  0  0
   28.5431   36.1839  -31.6396 C   0  0  0  0  0  0  0  0  0  0  0  0
   29.4694   37.3840  -31.6453 C   0  0  0  0  0  0  0  0  0  0  0  0
   29.7315   37.8267  -33.0714 C   0  0  0  0  0  0  0  0  0  0  0  0
   30.6562   39.0280  -33.0770 C   0  0  0  0  0  0  0  0  0  0  0  0
   30.9182   39.4707  -34.5031 C   0  0  0  0  0  0  0  0  0  0  0  0
   31.8414   40.6732  -34.5087 C   0  0  0  0  0  0  0  0  0  0  0  0
   32.1033   41.1159  -35.9347 C   0  0  0  0  0  0  0  0  0  0  0  0
   33.0249   42.3197  -35.9402 C   0  0  0  0  0  0  0  0  0  0  0  0
   33.2869   42.7624  -37.3663 C   0  0  0  0  0  0  0  0  0  0  0  0
   34.2101   43.9650  -37.3719 C   0  0  0  0  0  0  0  0  0  0  0  0
   34.4705   44.4089  -38.7979 C   0  0  0  0  0  0  0  0  0  0  0  0
   35.3952   45.6102  -38.8035 C   0  0  0  0  0  0  0  0  0  0  0  0
   35.6540   46.0554  -40.2294 C   0  0  0  0  0  0  0  0  0  0  0  0
   36.5772   47.2579  -40.2349 C   0  0  0  0  0  0  0  0  0  0  0  0
   36.8343   47.7041  -41.6610 C   0  0  0  0  0  0  0  0  0  0  0  0
   37.7591   48.9059  -41.6660 C   0  0  0  0  0  0  0  0  0  0  0  0
   38.0148   49.3529  -43.0925 C   0  0  0  0  0  0  0  0  0  0  0  0
   38.9379   50.5561  -43.0972 C   0  0  0  0  0  0  0  0  0  0  0  0
   39.1934   51.0030  -44.5239 C   0  0  0  0  0  0  0  0  0  0  0  0
   40.1151   52.2075  -44.5283 C   0  0  0  0  0  0  0  0  0  0  0  0
   40.3724   52.6534  -45.9549 C   0  0  0  0  0  0  0  0  0  0  0  0
   41.2924   53.8591  -45.9597 C   0  0  0  0  0  0  0  0  0  0  0  0
   41.5512   54.3037  -47.3866 C   0  0  0  0  0  0  0  0  0  0  0  0
   42.4698   55.5109  -47.3915 C   0  0  0  0  0  0  0  0  0  0  0  0
   42.7290   55.9560  -48.8186 C   0  0  0  0  0  0  0  0  0  0  0  0
   43.6496   57.1625  -48.8242 C   0  0  0  0  0  0  0  0  0  0  0  0
   43.9088   57.6109  -50.2514 C   0  0  0  0  0  0  0  0  0  0  0  0
   44.8301   58.8185  -50.2573 C   0  0  0  0  0  0  0  0  0  0  0  0
   45.0909   59.2691  -51.6853 C   0  0  0  0  0  0  0  0  0  0  0  0
   46.0121   60.4805  -51.7021 C   0  0  0  0  0  0  0  0  0  0  0  0
   46.2701   60.9272  -53.1264 C   0  0  0  0  0  0  0  0  0  0  0  0
    2.3894    3.6145    1.7745 H   0  0  0  0  0  0  0  0  0  0  0  0
    0.4276    2.7215    0.8458 H   0  0  0  0  0  0  0  0  0  0  0  0
   -0.2481    0.3634   -0.0297 H   0  0  0  0  0  0  0  0  0  0  0  0
    4.2096    0.9489    0.4280 H   0  0  0  0  0  0  0  0  0  0  0  0
    2.6426    1.9249   -2.0667 H   0  0  0  0  0  0  0  0  0  0  0  0
    4.0323    0.8464   -2.1491 H   0  0  0  0  0  0  0  0  0  0  0  0
    5.4718    2.6232   -1.1165 H   0  0  0  0  0  0  0  0  0  0  0  0
    4.0760    3.6990   -1.0273 H   0  0  0  0  0  0  0  0  0  0  0  0
    3.8268    3.5733   -3.5124 H   0  0  0  0  0  0  0  0  0  0  0  0
    5.2286    2.5000   -3.5881 H   0  0  0  0  0  0  0  0  0  0  0  0
    6.6468    4.2664   -2.5251 H   0  0  0  0  0  0  0  0  0  0  0  0
    5.2496    5.3421   -2.4446 H   0  0  0  0  0  0  0  0  0  0  0  0
    5.0187    5.2269   -4.9328 H   0  0  0  0  0  0  0  0  0  0  0  0
    6.4155    4.1485   -5.0131 H   0  0  0  0  0  0  0  0  0  0  0  0
    7.8377    5.9123   -3.9488 H   0  0  0  0  0  0  0  0  0  0  0  0
    6.4411    6.9907   -3.8707 H   0  0  0  0  0  0  0  0  0  0  0  0
    6.2094    6.8701   -6.3596 H   0  0  0  0  0  0  0  0  0  0  0  0
    7.6064    5.7927   -6.4375 H   0  0  0  0  0  0  0  0  0  0  0  0
    9.0277    7.5592   -5.3759 H   0  0  0  0  0  0  0  0  0  0  0  0
    7.6307    8.6368   -5.2991 H   0  0  0  0  0  0  0  0  0  0  0  0
    7.3966    8.5106   -7.7878 H   0  0  0  0  0  0  0  0  0  0  0  0
    8.7934    7.4335   -7.8651 H   0  0  0  0  0  0  0  0  0  0  0  0
   10.2167    9.2030   -6.8102 H   0  0  0  0  0  0  0  0  0  0  0  0
    8.8185   10.2804   -6.7344 H   0  0  0  0  0  0  0  0  0  0  0  0
    8.5839   10.1537   -9.2223 H   0  0  0  0  0  0  0  0  0  0  0  0
    9.9804    9.0752   -9.3002 H   0  0  0  0  0  0  0  0  0  0  0  0
   11.4044   10.8433   -8.2429 H   0  0  0  0  0  0  0  0  0  0  0  0
   10.0081   11.9215   -8.1643 H   0  0  0  0  0  0  0  0  0  0  0  0
    9.7705   11.7982  -10.6533 H   0  0  0  0  0  0  0  0  0  0  0  0
   11.1673   10.7200  -10.7335 H   0  0  0  0  0  0  0  0  0  0  0  0
   12.5911   12.4866   -9.6768 H   0  0  0  0  0  0  0  0  0  0  0  0
   11.1945   13.5645   -9.5967 H   0  0  0  0  0  0  0  0  0  0  0  0
   10.9574   13.4421  -12.0854 H   0  0  0  0  0  0  0  0  0  0  0  0
   12.3542   12.3641  -12.1654 H   0  0  0  0  0  0  0  0  0  0  0  0
   13.7779   14.1306  -11.1084 H   0  0  0  0  0  0  0  0  0  0  0  0
   12.3813   15.2085  -11.0284 H   0  0  0  0  0  0  0  0  0  0  0  0
   12.1441   15.0861  -13.5170 H   0  0  0  0  0  0  0  0  0  0  0  0
   13.5409   14.0082  -13.5971 H   0  0  0  0  0  0  0  0  0  0  0  0
   14.9646   15.7746  -12.5403 H   0  0  0  0  0  0  0  0  0  0  0  0
   13.5680   16.8525  -12.4602 H   0  0  0  0  0  0  0  0  0  0  0  0
   13.3307   16.7302  -14.9490 H   0  0  0  0  0  0  0  0  0  0  0  0
   14.7274   15.6520  -15.0293 H   0  0  0  0  0  0  0  0  0  0  0  0
   16.1518   17.4184  -13.9719 H   0  0  0  0  0  0  0  0  0  0  0  0
   14.7551   18.4967  -13.8914 H   0  0  0  0  0  0  0  0  0  0  0  0
   14.5173   18.3743  -16.3806 H   0  0  0  0  0  0  0  0  0  0  0  0
   15.9140   17.2960  -16.4611 H   0  0  0  0  0  0  0  0  0  0  0  0
   17.3391   19.0619  -15.4048 H   0  0  0  0  0  0  0  0  0  0  0  0
   15.9425   20.1403  -15.3218 H   0  0  0  0  0  0  0  0  0  0  0  0
   15.7019   20.0200  -17.8109 H   0  0  0  0  0  0  0  0  0  0  0  0
   17.0985   18.9416  -17.8939 H   0  0  0  0  0  0  0  0  0  0  0  0
   18.5237   20.7076  -16.8352 H   0  0  0  0  0  0  0  0  0  0  0  0
   17.1270   21.7860  -16.7546 H   0  0  0  0  0  0  0  0  0  0  0  0
   16.8892   21.6636  -19.2439 H   0  0  0  0  0  0  0  0  0  0  0  0
   18.2859   20.5851  -19.3244 H   0  0  0  0  0  0  0  0  0  0  0  0
   19.7099   22.3520  -18.2656 H   0  0  0  0  0  0  0  0  0  0  0  0
   18.3131   23.4305  -18.1875 H   0  0  0  0  0  0  0  0  0  0  0  0
   18.0781   23.3059  -20.6770 H   0  0  0  0  0  0  0  0  0  0  0  0
   19.4749   22.2274  -20.7550 H   0  0  0  0  0  0  0  0  0  0  0  0
   20.8978   23.9952  -19.6962 H   0  0  0  0  0  0  0  0  0  0  0  0
   19.5009   25.0737  -19.6206 H   0  0  0  0  0  0  0  0  0  0  0  0
   19.2687   24.9484  -22.1097 H   0  0  0  0  0  0  0  0  0  0  0  0
   20.6642   23.8681  -22.1862 H   0  0  0  0  0  0  0  0  0  0  0  0
   22.0897   25.6337  -21.1299 H   0  0  0  0  0  0  0  0  0  0  0  0
   20.6944   26.7140  -21.0510 H   0  0  0  0  0  0  0  0  0  0  0  0
   20.4581   26.5904  -23.5404 H   0  0  0  0  0  0  0  0  0  0  0  0
   21.8535   25.5100  -23.6193 H   0  0  0  0  0  0  0  0  0  0  0  0
   23.2797   27.2752  -22.5618 H   0  0  0  0  0  0  0  0  0  0  0  0
   21.8843   28.3556  -22.4829 H   0  0  0  0  0  0  0  0  0  0  0  0
   21.6481   28.2319  -24.9723 H   0  0  0  0  0  0  0  0  0  0  0  0
   23.0434   27.1516  -25.0512 H   0  0  0  0  0  0  0  0  0  0  0  0
   24.4696   28.9168  -23.9937 H   0  0  0  0  0  0  0  0  0  0  0  0
   23.0743   29.9971  -23.9148 H   0  0  0  0  0  0  0  0  0  0  0  0
   22.8380   29.8735  -26.4042 H   0  0  0  0  0  0  0  0  0  0  0  0
   24.2334   28.7931  -26.4831 H   0  0  0  0  0  0  0  0  0  0  0  0
   25.6596   30.5583  -25.4256 H   0  0  0  0  0  0  0  0  0  0  0  0
   24.2643   31.6387  -25.3467 H   0  0  0  0  0  0  0  0  0  0  0  0
   24.0281   31.5164  -27.8356 H   0  0  0  0  0  0  0  0  0  0  0  0
   25.4220   30.4343  -27.9154 H   0  0  0  0  0  0  0  0  0  0  0  0
   26.8515   32.1968  -26.8593 H   0  0  0  0  0  0  0  0  0  0  0  0
   25.4577   33.2789  -26.7771 H   0  0  0  0  0  0  0  0  0  0  0  0
   25.2174   33.1570  -29.2668 H   0  0  0  0  0  0  0  0  0  0  0  0
   26.6126   32.0767  -29.3481 H   0  0  0  0  0  0  0  0  0  0  0  0
   28.0395   33.8414  -28.2895 H   0  0  0  0  0  0  0  0  0  0  0  0
   26.6441   34.9217  -28.2105 H   0  0  0  0  0  0  0  0  0  0  0  0
   26.4078   34.7968  -30.7004 H   0  0  0  0  0  0  0  0  0  0  0  0
   27.8046   33.7182  -30.7785 H   0  0  0  0  0  0  0  0  0  0  0  0
   29.2280   35.4856  -29.7208 H   0  0  0  0  0  0  0  0  0  0  0  0
   27.8312   36.5641  -29.6427 H   0  0  0  0  0  0  0  0  0  0  0  0
   27.5961   36.4395  -32.1322 H   0  0  0  0  0  0  0  0  0  0  0  0
   28.9930   35.3610  -32.2103 H   0  0  0  0  0  0  0  0  0  0  0  0
   30.4164   37.1284  -31.1526 H   0  0  0  0  0  0  0  0  0  0  0  0
   29.0195   38.2068  -31.0746 H   0  0  0  0  0  0  0  0  0  0  0  0
   28.7844   38.0809  -33.5645 H   0  0  0  0  0  0  0  0  0  0  0  0
   30.1826   37.0043  -33.6417 H   0  0  0  0  0  0  0  0  0  0  0  0
   31.6033   38.7738  -32.5839 H   0  0  0  0  0  0  0  0  0  0  0  0
   30.2050   39.8504  -32.5067 H   0  0  0  0  0  0  0  0  0  0  0  0
   29.9710   39.7236  -34.9967 H   0  0  0  0  0  0  0  0  0  0  0  0
   31.3707   38.6487  -35.0731 H   0  0  0  0  0  0  0  0  0  0  0  0
   32.7886   40.4204  -34.0151 H   0  0  0  0  0  0  0  0  0  0  0  0
   31.3888   41.4952  -33.9387 H   0  0  0  0  0  0  0  0  0  0  0  0
   31.1560   41.3675  -36.4288 H   0  0  0  0  0  0  0  0  0  0  0  0
   32.5572   40.2944  -36.5043 H   0  0  0  0  0  0  0  0  0  0  0  0
   33.9723   42.0682  -35.4462 H   0  0  0  0  0  0  0  0  0  0  0  0
   32.5711   43.1412  -35.3707 H   0  0  0  0  0  0  0  0  0  0  0  0
   32.3397   43.0152  -37.8598 H   0  0  0  0  0  0  0  0  0  0  0  0
   33.7395   41.9405  -37.9363 H   0  0  0  0  0  0  0  0  0  0  0  0
   35.1578   43.7116  -36.8796 H   0  0  0  0  0  0  0  0  0  0  0  0
   33.7582   44.7864  -36.8007 H   0  0  0  0  0  0  0  0  0  0  0  0
   33.5228   44.6635  -39.2896 H   0  0  0  0  0  0  0  0  0  0  0  0
   34.9211   43.5870  -39.3694 H   0  0  0  0  0  0  0  0  0  0  0  0
   36.3434   45.3551  -38.3130 H   0  0  0  0  0  0  0  0  0  0  0  0
   34.9453   46.4316  -38.2308 H   0  0  0  0  0  0  0  0  0  0  0  0
   34.7057   46.3091  -40.7204 H   0  0  0  0  0  0  0  0  0  0  0  0
   36.1053   45.2344  -40.8018 H   0  0  0  0  0  0  0  0  0  0  0  0
   37.5260   47.0038  -39.7453 H   0  0  0  0  0  0  0  0  0  0  0  0
   36.1266   48.0784  -39.6615 H   0  0  0  0  0  0  0  0  0  0  0  0
   35.8857   47.9597  -42.1500 H   0  0  0  0  0  0  0  0  0  0  0  0
   37.2837   46.8835  -42.2347 H   0  0  0  0  0  0  0  0  0  0  0  0
   38.7080   48.6499  -41.1785 H   0  0  0  0  0  0  0  0  0  0  0  0
   37.3103   49.7259  -41.0917 H   0  0  0  0  0  0  0  0  0  0  0  0
   37.0658   49.6075  -43.5806 H   0  0  0  0  0  0  0  0  0  0  0  0
   38.4651   48.5334  -43.6664 H   0  0  0  0  0  0  0  0  0  0  0  0
   39.8868   50.3015  -42.6092 H   0  0  0  0  0  0  0  0  0  0  0  0
   38.4874   51.3755  -42.5235 H   0  0  0  0  0  0  0  0  0  0  0  0
   38.2444   51.2562  -45.0123 H   0  0  0  0  0  0  0  0  0  0  0  0
   39.6451   50.1840  -45.0971 H   0  0  0  0  0  0  0  0  0  0  0  0
   41.0636   51.9546  -44.0386 H   0  0  0  0  0  0  0  0  0  0  0  0
   39.6626   53.0268  -43.9561 H   0  0  0  0  0  0  0  0  0  0  0  0
   39.4237   52.9048  -46.4450 H   0  0  0  0  0  0  0  0  0  0  0  0
   40.8260   51.8343  -46.5266 H   0  0  0  0  0  0  0  0  0  0  0  0
   42.2405   53.6081  -45.4683 H   0  0  0  0  0  0  0  0  0  0  0  0
   40.8379   54.6785  -45.3891 H   0  0  0  0  0  0  0  0  0  0  0  0
   40.6029   54.5533  -47.8783 H   0  0  0  0  0  0  0  0  0  0  0  0
   42.0068   53.4846  -47.9566 H   0  0  0  0  0  0  0  0  0  0  0  0
   43.4179   55.2609  -46.8994 H   0  0  0  0  0  0  0  0  0  0  0  0
   42.0140   56.3296  -46.8211 H   0  0  0  0  0  0  0  0  0  0  0  0
   41.7805   56.2065  -49.3095 H   0  0  0  0  0  0  0  0  0  0  0  0
   43.1831   55.1361  -49.3887 H   0  0  0  0  0  0  0  0  0  0  0  0
   44.5976   56.9102  -48.3333 H   0  0  0  0  0  0  0  0  0  0  0  0
   43.1953   57.9806  -48.2517 H   0  0  0  0  0  0  0  0  0  0  0  0
   42.9593   57.8609  -50.7407 H   0  0  0  0  0  0  0  0  0  0  0  0
   44.3614   56.7907  -50.8224 H   0  0  0  0  0  0  0  0  0  0  0  0
   45.7776   58.5653  -49.7661 H   0  0  0  0  0  0  0  0  0  0  0  0
   44.3751   59.6357  -49.6844 H   0  0  0  0  0  0  0  0  0  0  0  0
   44.1406   59.5162  -52.1742 H   0  0  0  0  0  0  0  0  0  0  0  0
   45.5436   58.4482  -52.2550 H   0  0  0  0  0  0  0  0  0  0  0  0
   46.9637   60.2346  -51.2169 H   0  0  0  0  0  0  0  0  0  0  0  0
   45.5599   61.3032  -51.1361 H   0  0  0  0  0  0  0  0  0  0  0  0
   46.7439   60.1272  -53.7058 H   0  0  0  0  0  0  0  0  0  0  0  0
   46.9322   61.7980  -53.1393 H   0  0  0  0  0  0  0  0  0  0  0  0
   45.3336   61.2007  -53.6246 H   0  0  0  0  0  0  0  0  0  0  0  0
  1  2  1  0  0  0  0
  1 80  1  0  0  0  0
  2  3  1  0  0  0  0
  2  6  1  0  0  0  0
  3  4  2  0  0  0  0
  3 81  1  0  0  0  0
  4  5  1  0  0  0  0
  4 82  1  0  0  0  0
  5  6  1  0  0  0  0
  6  7  1  0  0  0  0
  6 83  1  0  0  0  0
  7  8  1  0  0  0  0
  7 84  1  0  0  0  0
  7 85  1  0  0  0  0
  8  9  1  0  0  0  0
  8 86  1  0  0  0  0
  8 87  1  0  0  0  0
  9 10  1  0  0  0  0
  9 88  1  0  0  0  0
  9 89  1  0  0  0  0
 10 11  1  0  0  0  0
 10 90  1  0  0  0  0
 10 91  1  0  0  0  0
 11 12  1  0  0  0  0
 11 92  1  0  0  0  0
 11 93  1  0  0  0  0
 12 13  1  0  0  0  0
 12 94  1  0  0  0  0
 12 95  1  0  0  0  0
 13 14  1  0  0  0  0
 13 96  1  0  0  0  0
 13 97  1  0  0  0  0
 14 15  1  0  0  0  0
 14 98  1  0  0  0  0
 14 99  1  0  0  0  0
 15 16  1  0  0  0  0
 15100  1  0  0  0  0
 15101  1  0  0  0  0
 16 17  1  0  0  0  0
 16102  1  0  0  0  0
 16103  1  0  0  0  0
 17 18  1  0  0  0  0
 17104  1  0  0  0  0
 17105  1  0  0  0  0
 18 19  1  0  0  0  0
 18106  1  0  0  0  0
 18107  1  0  0  0  0
 19 20  1  0  0  0  0
 19108  1  0  0  0  0
 19109  1  0  0  0  0
 20 21  1  0  0  0  0
 20110  1  0  0  0  0
 20111  1  0  0  0  0
 21 22  1  0  0  0  0
 21112  1  0  0  0  0
 21113  1  0  0  0  0
 22 23  1  0  0  0  0
 22114  1  0  0  0  0
 22115  1  0  0  0  0
 23 24  1  0  0  0  0
 23116  1  0  0  0  0
 23117  1  0  0  0  0
 24 25  1  0  0  0  0
 24118  1  0  0  0  0
 24119  1  0  0  0  0
 25 26  1  0  0  0  0
 25120  1  0  0  0  0
 25121  1  0  0  0  0
 26 27  1  0  0  0  0
 26122  1  0  0  0  0
 26123  1  0  0  0  0
 27 28  1  0  0  0  0
 27124  1  0  0  0  0
 27125  1  0  0  0  0
 28 29  1  0  0  0  0
 28126  1  0  0  0  0
 28127  1  0  0  0  0
 29 30  1  0  0  0  0
 29128  1  0  0  0  0
 29129  1  0  0  0  0
 30 31  1  0  0  0  0
 30130  1  0  0  0  0
 30131  1  0  0  0  0
 31 32  1  0  0  0  0
 31132  1  0  0  0  0
 31133  1  0  0  0  0
 32 33  1  0  0  0  0
 32134  1  0  0  0  0
 32135  1  0  0  0  0
 33 34  1  0  0  0  0
 33136  1  0  0  0  0
 33137  1  0  0  0  0
 34 35  1  0  0  0  0
 34138  1  0  0  0  0
 34139  1  0  0  0  0
 35 36  1  0  0  0  0
 35140  1  0  0  0  0
 35141  1  0  0  0  0
 36 37  1  0  0  0  0
 36142  1  0  0  0  0
 36143  1  0  0  0  0
 37 38  1  0  0  0  0
 37144  1  0  0  0  0
 37145  1  0  0  0  0
 38 39  1  0  0  0  0
 38146  1  0  0  0  0
 38147  1  0  0  0  0
 39 40  1  0  0  0  0
 39148  1  0  0  0  0
 39149  1  0  0  0  0
 40 41  1  0  0  0  0
 40150  1  0  0  0  0
 40151  1  0  0  0  0
 41 42  1  0  0  0  0
 41152  1  0  0  0  0
 41153  1  0  0  0  0
 42 43  1  0  0  0  0
 42154  1  0  0  0  0
 42155  1  0  0  0  0
 43 44  1  0  0  0  0
 43156  1  0  0  0  0
 43157  1  0  0  0  0
 44 45  1  0  0  0  0
 44158  1  0  0  0  0
 44159  1  0  0  0  0
 45 46  1  0  0  0  0
 45160  1  0  0  0  0
 45161  1  0  0  0  0
 46 47  1  0  0  0  0
 46162  1  0  0  0  0
 46163  1  0  0  0  0
 47 48  1  0  0  0  0
 47164  1  0  0  0  0
 47165  1  0  0  0  0
 48 49  1  0  0  0  0
 48166  1  0  0  0  0
 48167  1  0  0  0  0
 49 50  1  0  0  0  0
 49168  1  0  0  0  0
 49169  1  0  0  0  0
 50 51  1  0  0  0  0
 50170  1  0  0  0  0
 50171  1  0  0  0  0
 51 52  1  0  0  0  0
 51172  1  0  0  0  0
 51173  1  0  0  0  0
 52 53  1  0  0  0  0
 52174  1  0  0  0  0
 52175  1  0  0  0  0
 53 54  1  0  0  0  0
 53176  1  0  0  0  0
 53177  1  0  0  0  0
 54 55  1  0  0  0  0
 54178  1  0  0  0  0
 54179  1  0  0  0  0
 55 56  1  0  0  0  0
 55180  1  0  0  0  0
 55181  1  0  0  0  0
 56 57  1  0  0  0  0
 56182  1  0  0  0  0
 56183  1  0  0  0  0
 57 58  1  0  0  0  0
 57184  1  0  0  0  0
 57185  1  0  0  0  0
 58 59  1  0  0  0  0
 58186  1  0  0  0  0
 58187  1  0  0  0  0
 59 60  1  0  0  0  0
 59188  1  0  0  0  0
 59189  1  0  0  0  0
 60 61  1  0  0  0  0
 60190  1  0  0  0  0
 60191  1  0  0  0  0
 61 62  1  0  0  0  0
 61192  1  0  0  0  0
 61193  1  0  0  0  0
 62 63  1  0  0  0  0
 62194  1  0  0  0  0
 62195  1  0  0  0  0
 63 64  1  0  0  0  0
 63196  1  0  0  0  0
 63197  1  0  0  0  0
 64 65  1  0  0  0  0
 64198  1  0  0  0  0
 64199  1  0  0  0  0
 65 66  1  0  0  0  0
 65200  1  0  0  0  0
 65201  1  0  0  0  0
 66 67  1  0  0  0  0
 66202  1  0  0  0  0
 66203  1  0  0  0  0
 67 68  1  0  0  0  0
 67204  1  0  0  0  0
 67205  1  0  0  0  0
 68 69  1  0  0  0  0
 68206  1  0  0  0  0
 68207  1  0  0  0  0
 69 70  1  0  0  0  0
 69208  1  0  0  0  0
 69209  1  0  0  0  0
 70 71  1  0  0  0  0
 70210  1  0  0  0  0
 70211  1  0  0  0  0
 71 72  1  0  0  0  0
 71212  1  0  0  0  0
 71213  1  0  0  0  0
 72 73  1  0  0  0  0
 72214  1  0  0  0  0
 72215  1  0  0  0  0
 73 74  1  0  0  0  0
 73216  1  0  0  0  0
 73217  1  0  0  0  0
 74 75  1  0  0  0  0
 74218  1  0  0  0  0
 74219  1  0  0  0  0
 75 76  1  0  0  0  0
 75220  1  0  0  0  0
 75221  1  0  0  0  0
 76 77  1  0  0  0  0
 76222  1  0  0  0  0
 76223  1  0  0  0  0
 77 78  1  0  0  0  0
 77224  1  0  0  0  0
 77225  1  0  0  0  0
 78 79  1  0  0  0  0
 78226  1  0  0  0  0
 78227  1  0  0  0  0
 79228  1  0  0  0  0
 79229  1  0  0  0  0
 79230  1  0  0  0  0
M  END
$$$$
