
 OpenBabel04232217003D

114113  0  0  1  0  0  0  0  0999 V2000
    0.9979    0.2284   -0.0605 O   0  0  0  0  0  0  0  0  0  0  0  0
    2.4089    0.0864   -0.1060 C   0  0  0  0  0  0  0  0  0  0  0  0
    2.8736   -1.0239    0.8434 C   0  0  3  0  0  0  0  0  0  0  0  0
    2.3073   -2.3820    0.4077 C   0  0  0  0  0  0  0  0  0  0  0  0
    4.4128   -1.0257    0.8653 C   0  0  0  0  0  0  0  0  0  0  0  0
    5.0023   -2.0637    1.8104 C   0  0  0  0  0  0  0  0  0  0  0  0
    6.5218   -2.0082    1.7913 C   0  0  0  0  0  0  0  0  0  0  0  0
    7.0046   -3.0482    2.6896 N   0  0  0  0  0  0  0  0  0  0  0  0
    8.4497   -3.0660    2.6851 C   0  0  0  0  0  0  0  0  0  0  0  0
    8.8990   -4.1658    3.6250 C   0  0  0  0  0  0  0  0  0  0  0  0
   10.4316   -4.1813    3.6813 C   0  0  0  0  0  0  0  0  0  0  0  0
   10.8909   -5.2592    4.6045 C   0  0  0  0  0  0  0  0  0  0  0  0
   12.4032   -5.2623    4.5885 C   0  0  0  0  0  0  0  0  0  0  0  0
   12.9118   -6.3294    5.5172 C   0  0  0  0  0  0  0  0  0  0  0  0
   14.4189   -6.2798    5.5027 C   0  0  0  0  0  0  0  0  0  0  0  0
   14.9317   -7.3342    6.4331 C   0  0  0  0  0  0  0  0  0  0  0  0
   16.4296   -7.2875    6.4081 C   0  0  0  0  0  0  0  0  0  0  0  0
   16.8334   -8.2468    7.3544 O   0  0  0  0  0  0  0  0  0  0  0  0
   18.2311   -8.3072    7.3678 C   0  0  0  0  0  0  0  0  0  0  0  0
   18.6216   -9.2731    8.3039 O   0  0  0  0  0  0  0  0  0  0  0  0
   19.9624   -9.5598    7.9051 O   0  0  0  0  0  0  0  0  0  0  0  0
   20.5125  -10.5390    8.7642 O   0  0  0  0  0  0  0  0  0  0  0  0
   21.8092  -10.1223    9.1831 O   0  0  0  0  0  0  0  0  0  0  0  0
   22.2487  -11.0488   10.1591 O   0  0  0  0  0  0  0  0  0  0  0  0
   23.5247  -11.6028    9.8182 O   0  0  0  0  0  0  0  0  0  0  0  0
   24.1263  -12.0251   11.0372 O   0  0  0  0  0  0  0  0  0  0  0  0
   25.5249  -12.1167   10.9413 O   0  0  0  0  0  0  0  0  0  0  0  0
   25.9256  -13.4955   10.9514 O   0  0  0  0  0  0  0  0  0  0  0  0
   27.3304  -13.5931   11.2349 O   0  0  0  0  0  0  0  0  0  0  0  0
   27.5567  -13.5703   12.6614 O   0  0  0  0  0  0  0  0  0  0  0  0
   28.9495  -13.8062   12.9336 O   0  0  0  0  0  0  0  0  0  0  0  0
   29.2678  -15.1921   12.6862 O   0  0  0  0  0  0  0  0  0  0  0  0
   30.6887  -15.3651   12.6493 O   0  0  0  0  0  0  0  0  0  0  0  0
   31.1936  -15.4518   13.9923 O   0  0  0  0  0  0  0  0  0  0  0  0
   32.6003  -15.6728   13.9326 O   0  0  0  0  0  0  0  0  0  0  0  0
   32.9110  -16.9390   14.5017 O   0  0  0  0  0  0  0  0  0  0  0  0
   34.0944  -16.8117   15.2896 O   0  0  0  0  0  0  0  0  0  0  0  0
   34.5210  -18.1148   15.6751 O   0  0  0  0  0  0  0  0  0  0  0  0
   35.9043  -18.2495   15.4210 O   0  0  0  0  0  0  0  0  0  0  0  0
   36.5963  -18.4768   16.6430 O   0  0  0  0  0  0  0  0  0  0  0  0
   37.9489  -18.6842   16.2904 O   0  0  0  0  0  0  0  0  0  0  0  0
   38.4640  -19.8498   16.8948 O   0  0  0  0  0  0  0  0  0  0  0  0
   39.6390  -19.4287   17.5686 O   0  0  0  0  0  0  0  0  0  0  0  0
   40.1087  -20.4465   18.4114 O   0  0  0  0  0  0  0  0  0  0  0  0
   41.2766  -20.9924   17.8198 O   0  0  0  0  0  0  0  0  0  0  0  0
   41.8184  -21.8916   18.7423 O   0  0  0  0  0  0  0  0  0  0  0  0
   43.0525  -21.4131   19.2328 O   0  0  0  0  0  0  0  0  0  0  0  0
   43.5501  -22.5020   19.9453 O   0  0  0  0  0  0  0  0  0  0  0  0
   44.8490  -22.8332   19.6488 O   0  0  0  0  0  0  0  0  0  0  0  0
   45.3027  -23.3617   20.8535 O   0  0  0  0  0  0  0  0  0  0  0  0
   46.7184  -23.2803   20.9300 O   0  0  0  0  0  0  0  0  0  0  0  0
   47.1603  -24.6116   21.1262 O   0  0  0  0  0  0  0  0  0  0  0  0
   48.5690  -24.6340   21.1863 O   0  0  0  0  0  0  0  0  0  0  0  0
   48.9863  -25.0552   22.4818 O   0  0  0  0  0  0  0  0  0  0  0  0
   50.3913  -25.2376   22.4206 O   0  0  0  0  0  0  0  0  0  0  0  0
   50.7446  -26.5753   22.7619 O   0  0  0  0  0  0  0  0  0  0  0  0
   52.1562  -26.5936   22.9692 O   0  0  0  0  0  0  0  0  0  0  0  0
   52.4636  -26.8720   24.3399 O   0  0  0  0  0  0  0  0  0  0  0  0
   53.8656  -27.1599   24.4365 O   0  0  0  0  0  0  0  0  0  0  0  0
   54.0828  -28.5767   24.2969 O   0  0  0  0  0  0  0  0  0  0  0  0
   55.4883  -28.8581   24.3570 O   0  0  0  0  0  0  0  0  0  0  0  0
   55.9150  -28.8862   25.7323 O   0  0  0  0  0  0  0  0  0  0  0  0
   57.3354  -28.7295   25.7900 O   0  0  0  0  0  0  0  0  0  0  0  0
   57.9721  -29.9993   26.0144 O   0  0  0  0  0  0  0  0  0  0  0  0
   59.2598  -29.7494   26.5979 O   0  0  0  0  0  0  0  0  0  0  0  0
   59.6469  -30.8190   27.4690 O   0  0  0  0  0  0  0  0  0  0  0  0
   60.7720  -31.5034   26.8868 O   0  0  0  0  0  0  0  0  0  0  0  0
   61.3657  -32.3955   27.8430 O   0  0  0  0  0  0  0  0  0  0  0  0
   62.6652  -31.9114   28.2325 O   0  0  0  0  0  0  0  0  0  0  0  0
   63.1759  -32.7019   29.3251 O   0  0  0  0  0  0  0  0  0  0  0  0
   64.6096  -32.8249   29.2227 O   0  0  0  0  0  0  0  0  0  0  0  0
   65.0224  -34.1745   29.5291 O   0  0  0  0  0  0  0  0  0  0  0  0
   66.4647  -34.2518   29.5876 O   0  0  0  0  0  0  0  0  0  0  0  0
   66.9016  -34.6187   30.9176 O   0  0  0  0  0  0  0  0  0  0  0  0
   68.3465  -34.6582   30.9720 O   0  0  0  0  0  0  0  0  0  0  0  0
   68.8253  -36.0241   31.0433 O   0  0  0  0  0  0  0  0  0  0  0  0
   70.2368  -36.0298   31.3769 O   0  0  0  0  0  0  0  0  0  0  0  0
   70.5119  -36.9418   32.4685 O   0  0  0  0  0  0  0  0  0  0  0  0
   70.0441  -36.3993   33.7279 O   0  0  0  0  0  0  0  0  0  0  0  0
    0.7718    0.9418   -0.6834 H   0  0  0  0  0  0  0  0  0  0  0  0
    2.8528    1.0496    0.1704 H   0  0  0  0  0  0  0  0  0  0  0  0
    2.6963   -0.1494   -1.1382 H   0  0  0  0  0  0  0  0  0  0  0  0
    2.4913   -0.8137    1.8517 H   0  0  0  0  0  0  0  0  0  0  0  0
    2.7066   -2.6768   -0.5690 H   0  0  0  0  0  0  0  0  0  0  0  0
    1.2156   -2.3567    0.3329 H   0  0  0  0  0  0  0  0  0  0  0  0
    2.5549   -3.1726    1.1239 H   0  0  0  0  0  0  0  0  0  0  0  0
    4.7709   -0.0318    1.1608 H   0  0  0  0  0  0  0  0  0  0  0  0
    4.7890   -1.2064   -0.1503 H   0  0  0  0  0  0  0  0  0  0  0  0
    4.6919   -3.0694    1.5036 H   0  0  0  0  0  0  0  0  0  0  0  0
    4.6285   -1.8970    2.8299 H   0  0  0  0  0  0  0  0  0  0  0  0
    6.8846   -1.0269    2.1149 H   0  0  0  0  0  0  0  0  0  0  0  0
    6.8915   -2.1873    0.7724 H   0  0  0  0  0  0  0  0  0  0  0  0
    6.6320   -3.9528    2.3977 H   0  0  0  0  0  0  0  0  0  0  0  0
    8.8626   -2.1172    2.9996 H   0  0  0  0  0  0  0  0  0  0  0  0
    8.8332   -3.2942    1.6699 H   0  0  0  0  0  0  0  0  0  0  0  0
    8.5141   -5.1402    3.3140 H   0  0  0  0  0  0  0  0  0  0  0  0
    8.5162   -3.9844    4.6383 H   0  0  0  0  0  0  0  0  0  0  0  0
   10.8001   -3.2130    3.9802 H   0  0  0  0  0  0  0  0  0  0  0  0
   10.8055   -4.3762    2.6520 H   0  0  0  0  0  0  0  0  0  0  0  0
   10.4837   -6.2311    4.2858 H   0  0  0  0  0  0  0  0  0  0  0  0
   10.5262   -5.0673    5.6188 H   0  0  0  0  0  0  0  0  0  0  0  0
   12.7898   -4.2822    4.9028 H   0  0  0  0  0  0  0  0  0  0  0  0
   12.7798   -5.4419    3.5729 H   0  0  0  0  0  0  0  0  0  0  0  0
   12.5660   -7.3202    5.1975 H   0  0  0  0  0  0  0  0  0  0  0  0
   12.5437   -6.1669    6.5380 H   0  0  0  0  0  0  0  0  0  0  0  0
   14.7760   -5.2944    5.8223 H   0  0  0  0  0  0  0  0  0  0  0  0
   14.8033   -6.4559    4.4901 H   0  0  0  0  0  0  0  0  0  0  0  0
   14.5897   -8.3381    6.1476 H   0  0  0  0  0  0  0  0  0  0  0  0
   14.5757   -7.1757    7.4626 H   0  0  0  0  0  0  0  0  0  0  0  0
   16.8028   -6.2970    6.6954 H   0  0  0  0  0  0  0  0  0  0  0  0
   16.8093   -7.5399    5.4098 H   0  0  0  0  0  0  0  0  0  0  0  0
   18.6574   -7.3413    7.6617 H   0  0  0  0  0  0  0  0  0  0  0  0
   18.5908   -8.5848    6.3677 H   0  0  0  0  0  0  0  0  0  0  0  0
   70.0562  -37.2473   34.2034 H   0  0  0  0  0  0  0  0  0  0  0  0
  1  2  1  0  0  0  0
  1 80  1  0  0  0  0
  2  3  1  0  0  0  0
  2 81  1  0  0  0  0
  2 82  1  0  0  0  0
  3  4  1  0  0  0  0
  3  5  1  0  0  0  0
  3 83  1  0  0  0  0
  4 84  1  0  0  0  0
  4 85  1  0  0  0  0
  4 86  1  0  0  0  0
  5  6  1  0  0  0  0
  5 87  1  0  0  0  0
  5 88  1  0  0  0  0
  6  7  1  0  0  0  0
  6 89  1  0  0  0  0
  6 90  1  0  0  0  0
  7  8  1  0  0  0  0
  7 91  1  0  0  0  0
  7 92  1  0  0  0  0
  8  9  1  0  0  0  0
  8 93  1  0  0  0  0
  9 10  1  0  0  0  0
  9 94  1  0  0  0  0
  9 95  1  0  0  0  0
 10 11  1  0  0  0  0
 10 96  1  0  0  0  0
 10 97  1  0  0  0  0
 11 12  1  0  0  0  0
 11 98  1  0  0  0  0
 11 99  1  0  0  0  0
 12 13  1  0  0  0  0
 12100  1  0  0  0  0
 12101  1  0  0  0  0
 13 14  1  0  0  0  0
 13102  1  0  0  0  0
 13103  1  0  0  0  0
 14 15  1  0  0  0  0
 14104  1  0  0  0  0
 14105  1  0  0  0  0
 15 16  1  0  0  0  0
 15106  1  0  0  0  0
 15107  1  0  0  0  0
 16 17  1  0  0  0  0
 16108  1  0  0  0  0
 16109  1  0  0  0  0
 17 18  1  0  0  0  0
 17110  1  0  0  0  0
 17111  1  0  0  0  0
 18 19  1  0  0  0  0
 19 20  1  0  0  0  0
 19112  1  0  0  0  0
 19113  1  0  0  0  0
 20 21  1  0  0  0  0
 21 22  1  0  0  0  0
 22 23  1  0  0  0  0
 23 24  1  0  0  0  0
 24 25  1  0  0  0  0
 25 26  1  0  0  0  0
 26 27  1  0  0  0  0
 27 28  1  0  0  0  0
 28 29  1  0  0  0  0
 29 30  1  0  0  0  0
 30 31  1  0  0  0  0
 31 32  1  0  0  0  0
 32 33  1  0  0  0  0
 33 34  1  0  0  0  0
 34 35  1  0  0  0  0
 35 36  1  0  0  0  0
 36 37  1  0  0  0  0
 37 38  1  0  0  0  0
 38 39  1  0  0  0  0
 39 40  1  0  0  0  0
 40 41  1  0  0  0  0
 41 42  1  0  0  0  0
 42 43  1  0  0  0  0
 43 44  1  0  0  0  0
 44 45  1  0  0  0  0
 45 46  1  0  0  0  0
 46 47  1  0  0  0  0
 47 48  1  0  0  0  0
 48 49  1  0  0  0  0
 49 50  1  0  0  0  0
 50 51  1  0  0  0  0
 51 52  1  0  0  0  0
 52 53  1  0  0  0  0
 53 54  1  0  0  0  0
 54 55  1  0  0  0  0
 55 56  1  0  0  0  0
 56 57  1  0  0  0  0
 57 58  1  0  0  0  0
 58 59  1  0  0  0  0
 59 60  1  0  0  0  0
 60 61  1  0  0  0  0
 61 62  1  0  0  0  0
 62 63  1  0  0  0  0
 63 64  1  0  0  0  0
 64 65  1  0  0  0  0
 65 66  1  0  0  0  0
 66 67  1  0  0  0  0
 67 68  1  0  0  0  0
 68 69  1  0  0  0  0
 69 70  1  0  0  0  0
 70 71  1  0  0  0  0
 71 72  1  0  0  0  0
 72 73  1  0  0  0  0
 73 74  1  0  0  0  0
 74 75  1  0  0  0  0
 75 76  1  0  0  0  0
 76 77  1  0  0  0  0
 77 78  1  0  0  0  0
 78 79  1  0  0  0  0
 79114  1  0  0  0  0
M  END
$$$$
