
 OpenBabel04232216573D

225224  0  0  1  0  0  0  0  0999 V2000
   21.6159  -12.8020   -6.6405 C   0  0  0  0  0  0  0  0  0  0  0  0
   21.7052  -11.5975   -5.6910 O   0  0  0  0  0  0  0  0  0  0  0  0
   22.2453  -11.5521   -4.2591 C   0  0  3  0  0  0  0  0  0  0  0  0
   23.7269  -11.8151   -4.2450 C   0  0  0  0  0  0  0  0  0  0  0  0
   21.9052  -10.4226   -3.2404 C   0  0  0  0  0  0  0  0  0  0  0  0
   20.4680  -10.3699   -2.7099 C   0  0  0  0  0  0  0  0  0  0  0  0
   19.8987  -11.9274   -1.8229 S   0  0  0  0  0  0  0  0  0  0  0  0
   20.8116  -12.0056   -0.3137 C   0  0  0  0  0  0  0  0  0  0  0  0
   20.4523  -10.5371    0.6581 S   0  0  0  0  0  0  0  0  0  0  0  0
   18.5998  -10.6550    0.7098 C   0  0  0  0  0  0  0  0  0  0  0  0
   18.2297  -11.8495    1.5747 C   0  0  0  0  0  0  0  0  0  0  0  0
   16.4301  -11.9641    1.8963 S   0  0  0  0  0  0  0  0  0  0  0  0
   15.8011  -12.2644    0.2068 C   0  0  0  0  0  0  0  0  0  0  0  0
   16.3475  -13.5644   -0.3820 C   0  0  0  0  0  0  0  0  0  0  0  0
   15.7922  -13.8902   -1.7753 C   0  0  0  0  0  0  0  0  0  0  0  0
   16.0692  -12.8213   -2.7961 C   0  0  0  0  0  0  0  0  0  0  0  0
   17.4671  -12.8051   -3.0087 O   0  0  0  0  0  0  0  0  0  0  0  0
   17.7822  -11.8325   -3.9654 C   0  0  0  0  0  0  0  0  0  0  0  0
   19.1977  -12.2394   -4.9730 S   0  0  0  0  0  0  0  0  0  0  0  0
   20.1470  -13.8302   -4.2682 C   0  0  0  0  0  0  0  0  0  0  0  0
   21.7972  -14.0963   -4.1876 C   0  0  0  0  0  0  0  0  0  0  0  0
   22.5374  -15.2911   -4.6632 C   0  0  0  0  0  0  0  0  0  0  0  0
   24.0480  -15.0401   -4.6538 C   0  0  0  0  0  0  0  0  0  0  0  0
   24.6279  -16.6532   -5.0662 S   0  0  0  0  0  0  0  0  0  0  0  0
   26.3523  -16.2313   -5.1587 C   0  0  0  0  0  0  0  0  0  0  0  0
   26.9217  -17.5362   -5.5937 C   0  0  0  0  0  0  0  0  0  0  0  0
   28.4216  -17.4496   -5.6035 C   0  0  0  0  0  0  0  0  0  0  0  0
   28.9070  -18.8211   -6.0402 C   0  0  0  0  0  0  0  0  0  0  0  0
   30.4104  -18.8316   -6.0508 C   0  0  0  0  0  0  0  0  0  0  0  0
   30.8864  -20.2081   -6.4975 C   0  0  0  0  0  0  0  0  0  0  0  0
   32.4320  -20.1892   -6.5037 C   0  0  0  0  0  0  0  0  0  0  0  0
   32.9095  -21.5776   -6.8752 C   0  0  0  0  0  0  0  0  0  0  0  0
   34.4537  -21.6094   -6.9300 C   0  0  0  0  0  0  0  0  0  0  0  0
   34.9725  -22.9707   -7.3710 C   0  0  0  0  0  0  0  0  0  0  0  0
   36.4945  -22.9824   -7.3835 C   0  0  0  0  0  0  0  0  0  0  0  0
   37.0171  -24.3388   -7.8227 C   0  0  0  0  0  0  0  0  0  0  0  0
   38.5372  -24.3412   -7.8224 C   0  0  0  0  0  0  0  0  0  0  0  0
   39.0521  -25.6981   -8.2639 C   0  0  0  0  0  0  0  0  0  0  0  0
   40.5523  -25.7067   -8.2722 C   0  0  0  0  0  0  0  0  0  0  0  0
   41.0822  -27.0644   -8.7088 C   0  0  0  0  0  0  0  0  0  0  0  0
   42.5996  -27.0697   -8.7109 C   0  0  0  0  0  0  0  0  0  0  0  0
   43.1095  -28.4289   -9.1500 C   0  0  0  0  0  0  0  0  0  0  0  0
   44.6263  -28.4330   -9.1516 C   0  0  0  0  0  0  0  0  0  0  0  0
   45.1366  -29.7924   -9.5893 C   0  0  0  0  0  0  0  0  0  0  0  0
   46.6519  -29.7965   -9.5904 C   0  0  0  0  0  0  0  0  0  0  0  0
   47.1610  -31.1568  -10.0288 C   0  0  0  0  0  0  0  0  0  0  0  0
   48.6767  -31.1645  -10.0306 C   0  0  0  0  0  0  0  0  0  0  0  0
   49.1861  -32.5220  -10.4706 C   0  0  0  0  0  0  0  0  0  0  0  0
   50.7033  -32.5242  -10.4733 C   0  0  0  0  0  0  0  0  0  0  0  0
   51.2140  -33.8773  -10.9244 C   0  0  0  0  0  0  0  0  0  0  0  0
   52.7291  -33.8804  -10.9220 C   0  0  0  0  0  0  0  0  0  0  0  0
   53.2408  -35.2356  -11.3692 C   0  0  0  0  0  0  0  0  0  0  0  0
   54.7542  -35.2442  -11.3660 C   0  0  0  0  0  0  0  0  0  0  0  0
   55.2662  -36.5991  -11.8055 C   0  0  0  0  0  0  0  0  0  0  0  0
   56.7802  -36.6093  -11.7948 C   0  0  0  0  0  0  0  0  0  0  0  0
   57.2910  -37.9604  -12.2539 C   0  0  0  0  0  0  0  0  0  0  0  0
   58.8096  -37.9729  -12.2434 C   0  0  0  0  0  0  0  0  0  0  0  0
   59.3206  -39.3311  -12.6867 C   0  0  0  0  0  0  0  0  0  0  0  0
   60.8382  -39.3398  -12.6866 C   0  0  0  0  0  0  0  0  0  0  0  0
   61.3455  -40.6989  -13.1305 C   0  0  0  0  0  0  0  0  0  0  0  0
   62.8623  -40.7074  -13.1296 C   0  0  0  0  0  0  0  0  0  0  0  0
   63.3799  -42.0609  -13.5696 C   0  0  0  0  0  0  0  0  0  0  0  0
   64.8888  -42.0555  -13.5533 C   0  0  0  0  0  0  0  0  0  0  0  0
   65.4139  -43.4180  -14.0205 C   0  0  0  0  0  0  0  0  0  0  0  0
   66.9199  -43.4289  -14.0046 C   0  0  0  0  0  0  0  0  0  0  0  0
   67.4322  -44.7959  -14.4580 C   0  0  0  0  0  0  0  0  0  0  0  0
   68.9462  -44.7923  -14.4563 C   0  0  0  0  0  0  0  0  0  0  0  0
   69.4568  -46.1489  -14.9033 C   0  0  0  0  0  0  0  0  0  0  0  0
   70.9737  -46.1549  -14.9001 C   0  0  0  0  0  0  0  0  0  0  0  0
   71.4845  -47.5112  -15.3480 C   0  0  0  0  0  0  0  0  0  0  0  0
   73.0016  -47.5177  -15.3451 C   0  0  0  0  0  0  0  0  0  0  0  0
   73.5128  -48.8752  -15.7925 C   0  0  0  0  0  0  0  0  0  0  0  0
   75.0299  -48.8826  -15.7897 C   0  0  0  0  0  0  0  0  0  0  0  0
   75.5427  -50.2405  -16.2347 C   0  0  0  0  0  0  0  0  0  0  0  0
   77.0622  -50.2495  -16.2333 C   0  0  0  0  0  0  0  0  0  0  0  0
   77.5779  -51.6080  -16.6778 C   0  0  0  0  0  0  0  0  0  0  0  0
   79.0991  -51.6218  -16.6765 C   0  0  0  0  0  0  0  0  0  0  0  0
   79.6254  -52.9797  -17.1234 C   0  0  0  0  0  0  0  0  0  0  0  0
   81.1415  -52.9911  -17.1208 C   0  0  0  0  0  0  0  0  0  0  0  0
   20.9050  -12.6608   -7.4731 H   0  0  0  0  0  0  0  0  0  0  0  0
   21.1303  -13.7661   -6.2822 H   0  0  0  0  0  0  0  0  0  0  0  0
   22.5853  -13.1580   -6.9785 H   0  0  0  0  0  0  0  0  0  0  0  0
   21.7298  -12.2362   -3.6287 H   0  0  0  0  0  0  0  0  0  0  0  0
   24.2197  -10.9567   -4.7893 H   0  0  0  0  0  0  0  0  0  0  0  0
   24.0143  -12.6121   -4.9452 H   0  0  0  0  0  0  0  0  0  0  0  0
   24.2113  -12.0121   -3.3117 H   0  0  0  0  0  0  0  0  0  0  0  0
   22.1876   -9.4759   -3.6923 H   0  0  0  0  0  0  0  0  0  0  0  0
   22.5153  -10.5856   -2.3386 H   0  0  0  0  0  0  0  0  0  0  0  0
   19.8274  -10.1371   -3.5670 H   0  0  0  0  0  0  0  0  0  0  0  0
   20.2483   -9.5251   -2.0415 H   0  0  0  0  0  0  0  0  0  0  0  0
   21.8651  -12.1633   -0.5967 H   0  0  0  0  0  0  0  0  0  0  0  0
   20.5291  -12.9154    0.2569 H   0  0  0  0  0  0  0  0  0  0  0  0
   18.1423  -10.7171   -0.2885 H   0  0  0  0  0  0  0  0  0  0  0  0
   18.2387   -9.7210    1.1325 H   0  0  0  0  0  0  0  0  0  0  0  0
   18.7328  -11.7513    2.5406 H   0  0  0  0  0  0  0  0  0  0  0  0
   18.5648  -12.7988    1.1538 H   0  0  0  0  0  0  0  0  0  0  0  0
   16.0318  -11.3917   -0.4083 H   0  0  0  0  0  0  0  0  0  0  0  0
   14.7091  -12.3205    0.2706 H   0  0  0  0  0  0  0  0  0  0  0  0
   16.1069  -14.4012    0.2778 H   0  0  0  0  0  0  0  0  0  0  0  0
   17.4369  -13.5212   -0.4617 H   0  0  0  0  0  0  0  0  0  0  0  0
   14.7132  -14.0724   -1.7247 H   0  0  0  0  0  0  0  0  0  0  0  0
   16.2805  -14.8188   -2.1070 H   0  0  0  0  0  0  0  0  0  0  0  0
   15.7068  -11.8270   -2.4805 H   0  0  0  0  0  0  0  0  0  0  0  0
   15.6100  -13.0802   -3.7480 H   0  0  0  0  0  0  0  0  0  0  0  0
   17.7842  -10.8280   -3.4952 H   0  0  0  0  0  0  0  0  0  0  0  0
   17.0126  -11.7700   -4.7296 H   0  0  0  0  0  0  0  0  0  0  0  0
   19.7762  -14.3920   -5.1152 H   0  0  0  0  0  0  0  0  0  0  0  0
   19.6786  -14.2309   -3.3805 H   0  0  0  0  0  0  0  0  0  0  0  0
   22.2532  -13.8718   -3.1977 H   0  0  0  0  0  0  0  0  0  0  0  0
   22.2532  -13.5166   -4.8386 H   0  0  0  0  0  0  0  0  0  0  0  0
   22.2496  -15.5221   -5.7050 H   0  0  0  0  0  0  0  0  0  0  0  0
   22.2604  -16.0737   -3.9586 H   0  0  0  0  0  0  0  0  0  0  0  0
   24.4610  -14.6689   -3.6960 H   0  0  0  0  0  0  0  0  0  0  0  0
   24.4539  -14.3714   -5.4432 H   0  0  0  0  0  0  0  0  0  0  0  0
   26.6924  -15.9322   -4.1753 H   0  0  0  0  0  0  0  0  0  0  0  0
   26.5824  -15.4243   -5.8766 H   0  0  0  0  0  0  0  0  0  0  0  0
   26.5649  -17.7851   -6.5995 H   0  0  0  0  0  0  0  0  0  0  0  0
   26.6083  -18.3598   -4.9295 H   0  0  0  0  0  0  0  0  0  0  0  0
   28.7913  -17.1902   -4.6013 H   0  0  0  0  0  0  0  0  0  0  0  0
   28.7509  -16.6692   -6.2987 H   0  0  0  0  0  0  0  0  0  0  0  0
   28.4917  -19.0489   -7.0302 H   0  0  0  0  0  0  0  0  0  0  0  0
   28.5240  -19.5884   -5.3512 H   0  0  0  0  0  0  0  0  0  0  0  0
   30.7860  -18.6079   -5.0551 H   0  0  0  0  0  0  0  0  0  0  0  0
   30.7829  -18.0648   -6.7291 H   0  0  0  0  0  0  0  0  0  0  0  0
   30.5112  -20.4435   -7.4910 H   0  0  0  0  0  0  0  0  0  0  0  0
   30.5213  -20.9870   -5.8296 H   0  0  0  0  0  0  0  0  0  0  0  0
   32.7814  -19.9512   -5.5061 H   0  0  0  0  0  0  0  0  0  0  0  0
   32.8090  -19.4481   -7.2235 H   0  0  0  0  0  0  0  0  0  0  0  0
   32.5447  -21.8233   -7.9045 H   0  0  0  0  0  0  0  0  0  0  0  0
   32.4975  -22.3056   -6.1891 H   0  0  0  0  0  0  0  0  0  0  0  0
   34.8459  -21.3666   -5.9280 H   0  0  0  0  0  0  0  0  0  0  0  0
   34.8201  -20.8456   -7.6059 H   0  0  0  0  0  0  0  0  0  0  0  0
   34.6005  -23.1997   -8.3816 H   0  0  0  0  0  0  0  0  0  0  0  0
   34.6007  -23.7486   -6.7007 H   0  0  0  0  0  0  0  0  0  0  0  0
   36.8743  -22.7488   -6.3813 H   0  0  0  0  0  0  0  0  0  0  0  0
   36.8698  -22.2119   -8.0647 H   0  0  0  0  0  0  0  0  0  0  0  0
   36.6455  -24.5780   -8.8260 H   0  0  0  0  0  0  0  0  0  0  0  0
   36.6455  -25.1195   -7.1464 H   0  0  0  0  0  0  0  0  0  0  0  0
   38.9131  -24.1058   -6.8203 H   0  0  0  0  0  0  0  0  0  0  0  0
   38.9133  -23.5645   -8.5030 H   0  0  0  0  0  0  0  0  0  0  0  0
   38.6456  -25.9172   -9.2692 H   0  0  0  0  0  0  0  0  0  0  0  0
   38.6404  -26.4832   -7.5816 H   0  0  0  0  0  0  0  0  0  0  0  0
   40.9487  -25.4714   -7.2646 H   0  0  0  0  0  0  0  0  0  0  0  0
   40.9460  -24.9273   -8.9449 H   0  0  0  0  0  0  0  0  0  0  0  0
   40.7066  -27.2982   -9.7128 H   0  0  0  0  0  0  0  0  0  0  0  0
   40.7072  -27.8427   -8.0329 H   0  0  0  0  0  0  0  0  0  0  0  0
   42.9756  -26.8356   -7.7074 H   0  0  0  0  0  0  0  0  0  0  0  0
   42.9752  -26.2925   -9.3880 H   0  0  0  0  0  0  0  0  0  0  0  0
   42.7335  -28.6635  -10.1535 H   0  0  0  0  0  0  0  0  0  0  0  0
   42.7339  -29.2060   -8.4729 H   0  0  0  0  0  0  0  0  0  0  0  0
   45.0019  -28.1976   -8.1482 H   0  0  0  0  0  0  0  0  0  0  0  0
   45.0018  -27.6564   -9.8293 H   0  0  0  0  0  0  0  0  0  0  0  0
   44.7610  -30.0278  -10.5925 H   0  0  0  0  0  0  0  0  0  0  0  0
   44.7610  -30.5687   -8.9114 H   0  0  0  0  0  0  0  0  0  0  0  0
   47.0294  -29.5625   -8.5872 H   0  0  0  0  0  0  0  0  0  0  0  0
   47.0297  -29.0205  -10.2677 H   0  0  0  0  0  0  0  0  0  0  0  0
   46.7848  -31.3919  -11.0329 H   0  0  0  0  0  0  0  0  0  0  0  0
   46.7831  -31.9323   -9.3497 H   0  0  0  0  0  0  0  0  0  0  0  0
   49.0546  -30.9297   -9.0277 H   0  0  0  0  0  0  0  0  0  0  0  0
   49.0545  -30.3887  -10.7079 H   0  0  0  0  0  0  0  0  0  0  0  0
   48.8114  -32.7521  -11.4746 H   0  0  0  0  0  0  0  0  0  0  0  0
   48.8113  -33.3002   -9.7948 H   0  0  0  0  0  0  0  0  0  0  0  0
   51.0807  -32.2960   -9.4684 H   0  0  0  0  0  0  0  0  0  0  0  0
   51.0763  -31.7401  -11.1430 H   0  0  0  0  0  0  0  0  0  0  0  0
   50.8400  -34.1018  -11.9304 H   0  0  0  0  0  0  0  0  0  0  0  0
   50.8399  -34.6632  -10.2546 H   0  0  0  0  0  0  0  0  0  0  0  0
   53.1046  -33.6529   -9.9194 H   0  0  0  0  0  0  0  0  0  0  0  0
   53.1088  -33.0996  -11.5957 H   0  0  0  0  0  0  0  0  0  0  0  0
   52.8608  -35.4763  -12.3707 H   0  0  0  0  0  0  0  0  0  0  0  0
   52.8686  -36.0106  -10.6832 H   0  0  0  0  0  0  0  0  0  0  0  0
   55.1314  -35.0095  -10.3586 H   0  0  0  0  0  0  0  0  0  0  0  0
   55.1335  -34.4644  -12.0402 H   0  0  0  0  0  0  0  0  0  0  0  0
   54.8946  -36.8340  -12.8120 H   0  0  0  0  0  0  0  0  0  0  0  0
   54.8796  -37.3836  -11.1267 H   0  0  0  0  0  0  0  0  0  0  0  0
   57.1491  -36.3902  -10.7845 H   0  0  0  0  0  0  0  0  0  0  0  0
   57.1637  -35.8181  -12.4547 H   0  0  0  0  0  0  0  0  0  0  0  0
   56.9241  -38.1784  -13.2649 H   0  0  0  0  0  0  0  0  0  0  0  0
   56.9031  -38.7444  -11.5924 H   0  0  0  0  0  0  0  0  0  0  0  0
   59.1799  -37.7469  -11.2361 H   0  0  0  0  0  0  0  0  0  0  0  0
   59.1928  -37.1935  -12.9134 H   0  0  0  0  0  0  0  0  0  0  0  0
   58.9472  -39.5610  -13.6921 H   0  0  0  0  0  0  0  0  0  0  0  0
   58.9432  -40.1103  -12.0133 H   0  0  0  0  0  0  0  0  0  0  0  0
   61.2143  -39.1101  -11.6824 H   0  0  0  0  0  0  0  0  0  0  0  0
   61.2163  -38.5602  -13.3606 H   0  0  0  0  0  0  0  0  0  0  0  0
   60.9730  -40.9289  -14.1356 H   0  0  0  0  0  0  0  0  0  0  0  0
   60.9661  -41.4782  -12.4576 H   0  0  0  0  0  0  0  0  0  0  0  0
   63.2439  -40.4668  -12.1284 H   0  0  0  0  0  0  0  0  0  0  0  0
   63.2315  -39.9343  -13.8162 H   0  0  0  0  0  0  0  0  0  0  0  0
   63.0073  -42.2912  -14.5759 H   0  0  0  0  0  0  0  0  0  0  0  0
   62.9987  -42.8444  -12.8981 H   0  0  0  0  0  0  0  0  0  0  0  0
   65.2720  -41.8369  -12.5577 H   0  0  0  0  0  0  0  0  0  0  0  0
   65.2726  -41.2794  -14.2402 H   0  0  0  0  0  0  0  0  0  0  0  0
   65.0360  -43.6423  -15.0276 H   0  0  0  0  0  0  0  0  0  0  0  0
   65.0233  -44.2081  -13.3581 H   0  0  0  0  0  0  0  0  0  0  0  0
   67.2954  -43.1957  -13.0003 H   0  0  0  0  0  0  0  0  0  0  0  0
   67.3032  -42.6484  -14.6832 H   0  0  0  0  0  0  0  0  0  0  0  0
   67.0569  -45.0148  -15.4658 H   0  0  0  0  0  0  0  0  0  0  0  0
   67.0514  -45.5649  -13.7875 H   0  0  0  0  0  0  0  0  0  0  0  0
   69.3192  -44.5652  -13.4503 H   0  0  0  0  0  0  0  0  0  0  0  0
   69.3249  -44.0108  -15.1274 H   0  0  0  0  0  0  0  0  0  0  0  0
   69.0835  -46.3758  -15.9096 H   0  0  0  0  0  0  0  0  0  0  0  0
   69.0778  -46.9301  -14.2327 H   0  0  0  0  0  0  0  0  0  0  0  0
   71.3461  -45.9287  -13.8934 H   0  0  0  0  0  0  0  0  0  0  0  0
   71.3520  -45.3730  -15.5696 H   0  0  0  0  0  0  0  0  0  0  0  0
   71.1111  -47.7374  -16.3543 H   0  0  0  0  0  0  0  0  0  0  0  0
   71.1057  -48.2928  -14.6780 H   0  0  0  0  0  0  0  0  0  0  0  0
   73.3747  -47.2905  -14.3389 H   0  0  0  0  0  0  0  0  0  0  0  0
   73.3798  -46.7364  -16.0160 H   0  0  0  0  0  0  0  0  0  0  0  0
   73.1385  -49.1018  -16.7981 H   0  0  0  0  0  0  0  0  0  0  0  0
   73.1332  -49.6557  -15.1211 H   0  0  0  0  0  0  0  0  0  0  0  0
   75.4024  -48.6531  -14.7838 H   0  0  0  0  0  0  0  0  0  0  0  0
   75.4074  -48.1020  -16.4614 H   0  0  0  0  0  0  0  0  0  0  0  0
   75.1679  -50.4686  -17.2403 H   0  0  0  0  0  0  0  0  0  0  0  0
   75.1630  -51.0202  -15.5625 H   0  0  0  0  0  0  0  0  0  0  0  0
   77.4333  -50.0188  -15.2269 H   0  0  0  0  0  0  0  0  0  0  0  0
   77.4382  -49.4681  -16.9048 H   0  0  0  0  0  0  0  0  0  0  0  0
   77.2041  -51.8348  -17.6829 H   0  0  0  0  0  0  0  0  0  0  0  0
   77.1968  -52.3869  -16.0066 H   0  0  0  0  0  0  0  0  0  0  0  0
   79.4683  -51.3918  -15.6691 H   0  0  0  0  0  0  0  0  0  0  0  0
   79.4750  -50.8377  -17.3457 H   0  0  0  0  0  0  0  0  0  0  0  0
   79.2579  -53.2090  -18.1306 H   0  0  0  0  0  0  0  0  0  0  0  0
   79.2509  -53.7633  -16.4543 H   0  0  0  0  0  0  0  0  0  0  0  0
   81.5364  -52.2306  -17.8021 H   0  0  0  0  0  0  0  0  0  0  0  0
   81.5134  -53.9678  -17.4422 H   0  0  0  0  0  0  0  0  0  0  0  0
   81.5293  -52.7876  -16.1176 H   0  0  0  0  0  0  0  0  0  0  0  0
  1  2  1  0  0  0  0
  1 80  1  0  0  0  0
  1 81  1  0  0  0  0
  1 82  1  0  0  0  0
  2  3  1  0  0  0  0
  3  4  1  0  0  0  0
  3  5  1  0  0  0  0
  3 83  1  0  0  0  0
  4 84  1  0  0  0  0
  4 85  1  0  0  0  0
  4 86  1  0  0  0  0
  5  6  1  0  0  0  0
  5 87  1  0  0  0  0
  5 88  1  0  0  0  0
  6  7  1  0  0  0  0
  6 89  1  0  0  0  0
  6 90  1  0  0  0  0
  7  8  1  0  0  0  0
  8  9  1  0  0  0  0
  8 91  1  0  0  0  0
  8 92  1  0  0  0  0
  9 10  1  0  0  0  0
 10 11  1  0  0  0  0
 10 93  1  0  0  0  0
 10 94  1  0  0  0  0
 11 12  1  0  0  0  0
 11 95  1  0  0  0  0
 11 96  1  0  0  0  0
 12 13  1  0  0  0  0
 13 14  1  0  0  0  0
 13 97  1  0  0  0  0
 13 98  1  0  0  0  0
 14 15  1  0  0  0  0
 14 99  1  0  0  0  0
 14100  1  0  0  0  0
 15 16  1  0  0  0  0
 15101  1  0  0  0  0
 15102  1  0  0  0  0
 16 17  1  0  0  0  0
 16103  1  0  0  0  0
 16104  1  0  0  0  0
 17 18  1  0  0  0  0
 18 19  1  0  0  0  0
 18105  1  0  0  0  0
 18106  1  0  0  0  0
 19 20  1  0  0  0  0
 20 21  1  0  0  0  0
 20107  1  0  0  0  0
 20108  1  0  0  0  0
 21 22  1  0  0  0  0
 21109  1  0  0  0  0
 21110  1  0  0  0  0
 22 23  1  0  0  0  0
 22111  1  0  0  0  0
 22112  1  0  0  0  0
 23 24  1  0  0  0  0
 23113  1  0  0  0  0
 23114  1  0  0  0  0
 24 25  1  0  0  0  0
 25 26  1  0  0  0  0
 25115  1  0  0  0  0
 25116  1  0  0  0  0
 26 27  1  0  0  0  0
 26117  1  0  0  0  0
 26118  1  0  0  0  0
 27 28  1  0  0  0  0
 27119  1  0  0  0  0
 27120  1  0  0  0  0
 28 29  1  0  0  0  0
 28121  1  0  0  0  0
 28122  1  0  0  0  0
 29 30  1  0  0  0  0
 29123  1  0  0  0  0
 29124  1  0  0  0  0
 30 31  1  0  0  0  0
 30125  1  0  0  0  0
 30126  1  0  0  0  0
 31 32  1  0  0  0  0
 31127  1  0  0  0  0
 31128  1  0  0  0  0
 32 33  1  0  0  0  0
 32129  1  0  0  0  0
 32130  1  0  0  0  0
 33 34  1  0  0  0  0
 33131  1  0  0  0  0
 33132  1  0  0  0  0
 34 35  1  0  0  0  0
 34133  1  0  0  0  0
 34134  1  0  0  0  0
 35 36  1  0  0  0  0
 35135  1  0  0  0  0
 35136  1  0  0  0  0
 36 37  1  0  0  0  0
 36137  1  0  0  0  0
 36138  1  0  0  0  0
 37 38  1  0  0  0  0
 37139  1  0  0  0  0
 37140  1  0  0  0  0
 38 39  1  0  0  0  0
 38141  1  0  0  0  0
 38142  1  0  0  0  0
 39 40  1  0  0  0  0
 39143  1  0  0  0  0
 39144  1  0  0  0  0
 40 41  1  0  0  0  0
 40145  1  0  0  0  0
 40146  1  0  0  0  0
 41 42  1  0  0  0  0
 41147  1  0  0  0  0
 41148  1  0  0  0  0
 42 43  1  0  0  0  0
 42149  1  0  0  0  0
 42150  1  0  0  0  0
 43 44  1  0  0  0  0
 43151  1  0  0  0  0
 43152  1  0  0  0  0
 44 45  1  0  0  0  0
 44153  1  0  0  0  0
 44154  1  0  0  0  0
 45 46  1  0  0  0  0
 45155  1  0  0  0  0
 45156  1  0  0  0  0
 46 47  1  0  0  0  0
 46157  1  0  0  0  0
 46158  1  0  0  0  0
 47 48  1  0  0  0  0
 47159  1  0  0  0  0
 47160  1  0  0  0  0
 48 49  1  0  0  0  0
 48161  1  0  0  0  0
 48162  1  0  0  0  0
 49 50  1  0  0  0  0
 49163  1  0  0  0  0
 49164  1  0  0  0  0
 50 51  1  0  0  0  0
 50165  1  0  0  0  0
 50166  1  0  0  0  0
 51 52  1  0  0  0  0
 51167  1  0  0  0  0
 51168  1  0  0  0  0
 52 53  1  0  0  0  0
 52169  1  0  0  0  0
 52170  1  0  0  0  0
 53 54  1  0  0  0  0
 53171  1  0  0  0  0
 53172  1  0  0  0  0
 54 55  1  0  0  0  0
 54173  1  0  0  0  0
 54174  1  0  0  0  0
 55 56  1  0  0  0  0
 55175  1  0  0  0  0
 55176  1  0  0  0  0
 56 57  1  0  0  0  0
 56177  1  0  0  0  0
 56178  1  0  0  0  0
 57 58  1  0  0  0  0
 57179  1  0  0  0  0
 57180  1  0  0  0  0
 58 59  1  0  0  0  0
 58181  1  0  0  0  0
 58182  1  0  0  0  0
 59 60  1  0  0  0  0
 59183  1  0  0  0  0
 59184  1  0  0  0  0
 60 61  1  0  0  0  0
 60185  1  0  0  0  0
 60186  1  0  0  0  0
 61 62  1  0  0  0  0
 61187  1  0  0  0  0
 61188  1  0  0  0  0
 62 63  1  0  0  0  0
 62189  1  0  0  0  0
 62190  1  0  0  0  0
 63 64  1  0  0  0  0
 63191  1  0  0  0  0
 63192  1  0  0  0  0
 64 65  1  0  0  0  0
 64193  1  0  0  0  0
 64194  1  0  0  0  0
 65 66  1  0  0  0  0
 65195  1  0  0  0  0
 65196  1  0  0  0  0
 66 67  1  0  0  0  0
 66197  1  0  0  0  0
 66198  1  0  0  0  0
 67 68  1  0  0  0  0
 67199  1  0  0  0  0
 67200  1  0  0  0  0
 68 69  1  0  0  0  0
 68201  1  0  0  0  0
 68202  1  0  0  0  0
 69 70  1  0  0  0  0
 69203  1  0  0  0  0
 69204  1  0  0  0  0
 70 71  1  0  0  0  0
 70205  1  0  0  0  0
 70206  1  0  0  0  0
 71 72  1  0  0  0  0
 71207  1  0  0  0  0
 71208  1  0  0  0  0
 72 73  1  0  0  0  0
 72209  1  0  0  0  0
 72210  1  0  0  0  0
 73 74  1  0  0  0  0
 73211  1  0  0  0  0
 73212  1  0  0  0  0
 74 75  1  0  0  0  0
 74213  1  0  0  0  0
 74214  1  0  0  0  0
 75 76  1  0  0  0  0
 75215  1  0  0  0  0
 75216  1  0  0  0  0
 76 77  1  0  0  0  0
 76217  1  0  0  0  0
 76218  1  0  0  0  0
 77 78  1  0  0  0  0
 77219  1  0  0  0  0
 77220  1  0  0  0  0
 78 79  1  0  0  0  0
 78221  1  0  0  0  0
 78222  1  0  0  0  0
 79223  1  0  0  0  0
 79224  1  0  0  0  0
 79225  1  0  0  0  0
M  END
$$$$
