
 OpenBabel04232216573D

 49 48  0  0  0  0  0  0  0  0999 V2000
    0.9085   -0.0755    0.0610 N   0  0  0  0  0  0  0  0  0  0  0  0
    2.3649   -0.0744    0.0659 C   0  0  0  0  0  0  0  0  0  0  0  0
    2.8897   -0.2856   -1.3493 C   0  0  0  0  0  0  0  0  0  0  0  0
    4.4153   -0.2860   -1.3653 C   0  0  0  0  0  0  0  0  0  0  0  0
    4.9389   -0.4953   -2.7808 C   0  0  0  0  0  0  0  0  0  0  0  0
    6.4611   -0.4980   -2.7936 C   0  0  0  0  0  0  0  0  0  0  0  0
    6.9800   -0.7084   -4.2087 C   0  0  0  0  0  0  0  0  0  0  0  0
    8.5013   -0.7125   -4.2192 C   0  0  0  0  0  0  0  0  0  0  0  0
    9.0188   -0.9203   -5.6337 C   0  0  0  0  0  0  0  0  0  0  0  0
   10.5396   -0.9235   -5.6461 C   0  0  0  0  0  0  0  0  0  0  0  0
   11.0555   -1.1319   -7.0623 C   0  0  0  0  0  0  0  0  0  0  0  0
   12.5773   -1.1340   -7.0758 C   0  0  0  0  0  0  0  0  0  0  0  0
   13.0989   -1.3421   -8.4916 C   0  0  0  0  0  0  0  0  0  0  0  0
   14.6225   -1.3441   -8.5036 C   0  0  0  0  0  0  0  0  0  0  0  0
   15.1564   -1.5527   -9.9160 C   0  0  0  0  0  0  0  0  0  0  0  0
   16.6709   -1.5538   -9.9226 C   0  0  0  0  0  0  0  0  0  0  0  0
    0.5682    0.0129    1.0170 H   0  0  0  0  0  0  0  0  0  0  0  0
    0.5699   -0.9739   -0.2811 H   0  0  0  0  0  0  0  0  0  0  0  0
    2.7302   -0.8684    0.7267 H   0  0  0  0  0  0  0  0  0  0  0  0
    2.7244    0.8813    0.4619 H   0  0  0  0  0  0  0  0  0  0  0  0
    2.5173    0.5077   -2.0101 H   0  0  0  0  0  0  0  0  0  0  0  0
    2.5214   -1.2387   -1.7498 H   0  0  0  0  0  0  0  0  0  0  0  0
    4.7936   -1.0814   -0.7115 H   0  0  0  0  0  0  0  0  0  0  0  0
    4.7923    0.6651   -0.9699 H   0  0  0  0  0  0  0  0  0  0  0  0
    4.5656    0.3003   -3.4372 H   0  0  0  0  0  0  0  0  0  0  0  0
    4.5649   -1.4463   -3.1794 H   0  0  0  0  0  0  0  0  0  0  0  0
    6.8382   -1.2934   -2.1391 H   0  0  0  0  0  0  0  0  0  0  0  0
    6.8390    0.4531   -2.3985 H   0  0  0  0  0  0  0  0  0  0  0  0
    6.6063    0.0876   -4.8645 H   0  0  0  0  0  0  0  0  0  0  0  0
    6.6035   -1.6590   -4.6060 H   0  0  0  0  0  0  0  0  0  0  0  0
    8.8754   -1.5096   -3.5651 H   0  0  0  0  0  0  0  0  0  0  0  0
    8.8784    0.2374   -3.8214 H   0  0  0  0  0  0  0  0  0  0  0  0
    8.6429   -0.1245   -6.2880 H   0  0  0  0  0  0  0  0  0  0  0  0
    8.6417   -1.8708   -6.0316 H   0  0  0  0  0  0  0  0  0  0  0  0
   10.9156   -1.7192   -4.9912 H   0  0  0  0  0  0  0  0  0  0  0  0
   10.9153    0.0275   -5.2487 H   0  0  0  0  0  0  0  0  0  0  0  0
   10.6786   -0.3352   -7.7149 H   0  0  0  0  0  0  0  0  0  0  0  0
   10.6785   -2.0826   -7.4578 H   0  0  0  0  0  0  0  0  0  0  0  0
   12.9518   -1.9298   -6.4203 H   0  0  0  0  0  0  0  0  0  0  0  0
   12.9519   -0.1836   -6.6767 H   0  0  0  0  0  0  0  0  0  0  0  0
   12.7217   -0.5457   -9.1449 H   0  0  0  0  0  0  0  0  0  0  0  0
   12.7216   -2.2927   -8.8878 H   0  0  0  0  0  0  0  0  0  0  0  0
   14.9943   -2.1393   -7.8456 H   0  0  0  0  0  0  0  0  0  0  0  0
   14.9945   -0.3931   -8.1028 H   0  0  0  0  0  0  0  0  0  0  0  0
   14.7893   -0.7571  -10.5750 H   0  0  0  0  0  0  0  0  0  0  0  0
   14.7892   -2.5037  -10.3177 H   0  0  0  0  0  0  0  0  0  0  0  0
   17.0672   -0.6021   -9.5515 H   0  0  0  0  0  0  0  0  0  0  0  0
   17.0497   -1.7033  -10.9391 H   0  0  0  0  0  0  0  0  0  0  0  0
   17.0669   -2.3577   -9.2927 H   0  0  0  0  0  0  0  0  0  0  0  0
  1  2  1  0  0  0  0
  1 17  1  0  0  0  0
  1 18  1  0  0  0  0
  2  3  1  0  0  0  0
  2 19  1  0  0  0  0
  2 20  1  0  0  0  0
  3  4  1  0  0  0  0
  3 21  1  0  0  0  0
  3 22  1  0  0  0  0
  4  5  1  0  0  0  0
  4 23  1  0  0  0  0
  4 24  1  0  0  0  0
  5  6  1  0  0  0  0
  5 25  1  0  0  0  0
  5 26  1  0  0  0  0
  6  7  1  0  0  0  0
  6 27  1  0  0  0  0
  6 28  1  0  0  0  0
  7  8  1  0  0  0  0
  7 29  1  0  0  0  0
  7 30  1  0  0  0  0
  8  9  1  0  0  0  0
  8 31  1  0  0  0  0
  8 32  1  0  0  0  0
  9 10  1  0  0  0  0
  9 33  1  0  0  0  0
  9 34  1  0  0  0  0
 10 11  1  0  0  0  0
 10 35  1  0  0  0  0
 10 36  1  0  0  0  0
 11 12  1  0  0  0  0
 11 37  1  0  0  0  0
 11 38  1  0  0  0  0
 12 13  1  0  0  0  0
 12 39  1  0  0  0  0
 12 40  1  0  0  0  0
 13 14  1  0  0  0  0
 13 41  1  0  0  0  0
 13 42  1  0  0  0  0
 14 15  1  0  0  0  0
 14 43  1  0  0  0  0
 14 44  1  0  0  0  0
 15 16  1  0  0  0  0
 15 45  1  0  0  0  0
 15 46  1  0  0  0  0
 16 47  1  0  0  0  0
 16 48  1  0  0  0  0
 16 49  1  0  0  0  0
M  END
$$$$
