
 OpenBabel04232216453D

 56 56  0  0  0  0  0  0  0  0999 V2000
    6.1930    3.0341   -0.7955 C   0  0  0  0  0  0  0  0  0  0  0  0
    7.1069    2.9065    0.4039 C   0  0  0  0  0  0  0  0  0  0  0  0
    6.4009    2.2853    1.3597 C   0  0  0  0  0  0  0  0  0  0  0  0
    5.6118    1.0510    1.5577 C   0  0  0  0  0  0  0  0  0  0  0  0
    5.8600   -0.1739    0.6805 C   0  0  0  0  0  0  0  0  0  0  0  0
    5.3173    0.8465    2.9027 C   0  0  0  0  0  0  0  0  0  0  0  0
    4.5329    1.9800    3.6211 C   0  0  0  0  0  0  0  0  0  0  0  0
    3.0397    1.9343    3.3490 C   0  0  0  0  0  0  0  0  0  0  0  0
    2.3904    0.9056    4.2561 C   0  0  0  0  0  0  0  0  0  0  0  0
    0.8888    0.9067    4.0815 C   0  0  0  0  0  0  0  0  0  0  0  0
    6.5079    0.4025    3.6102 C   0  0  0  0  0  0  0  0  0  0  0  0
    7.4234    1.3603    3.9045 C   0  0  0  0  0  0  0  0  0  0  0  0
    8.8524    1.2823    3.9339 C   0  0  0  0  0  0  0  0  0  0  0  0
    9.6150    0.8100    2.9111 C   0  0  0  0  0  0  0  0  0  0  0  0
    9.1372    0.1813    1.5945 C   0  0  0  0  0  0  0  0  0  0  0  0
   10.1615   -0.3548    0.5803 C   0  0  0  0  0  0  0  0  0  0  0  0
   10.8395   -1.6119    1.0662 C   0  0  0  0  0  0  0  0  0  0  0  0
    9.2146    2.3496    4.7233 N   0  0  0  0  0  0  0  0  0  0  0  0
   10.3315    2.4943    5.2601 C   0  0  0  0  0  0  0  0  0  0  0  0
   10.7027    3.9262    5.0136 C   0  0  0  0  0  0  0  0  0  0  0  0
   11.2644    3.9819    3.8558 N   0  0  0  0  0  0  0  0  0  0  0  0
   10.8798    4.9734    3.0014 C   0  0  0  0  0  0  0  0  0  0  0  0
   10.2791    4.6819    1.8081 C   0  0  0  0  0  0  0  0  0  0  0  0
    9.1686    3.6964    1.2664 C   0  0  0  0  0  0  0  0  0  0  0  0
    7.9537    3.9847    0.8186 N   0  0  0  0  0  0  0  0  0  0  0  0
    5.5858    3.9422   -0.6765 H   0  0  0  0  0  0  0  0  0  0  0  0
    5.4517    2.2162   -0.8347 H   0  0  0  0  0  0  0  0  0  0  0  0
    6.6980    3.0268   -1.7575 H   0  0  0  0  0  0  0  0  0  0  0  0
    6.2119    3.0413    2.1131 H   0  0  0  0  0  0  0  0  0  0  0  0
    4.9069   -0.5488    0.2876 H   0  0  0  0  0  0  0  0  0  0  0  0
    6.3056   -1.0172    1.2251 H   0  0  0  0  0  0  0  0  0  0  0  0
    6.5100    0.0289   -0.1774 H   0  0  0  0  0  0  0  0  0  0  0  0
    4.8406    2.9842    3.3183 H   0  0  0  0  0  0  0  0  0  0  0  0
    4.7348    1.9583    4.6990 H   0  0  0  0  0  0  0  0  0  0  0  0
    2.8334    1.7197    2.2920 H   0  0  0  0  0  0  0  0  0  0  0  0
    2.6177    2.9267    3.5510 H   0  0  0  0  0  0  0  0  0  0  0  0
    2.6338    1.1387    5.2996 H   0  0  0  0  0  0  0  0  0  0  0  0
    2.7931   -0.0895    4.0407 H   0  0  0  0  0  0  0  0  0  0  0  0
    0.4671    1.8769    4.3644 H   0  0  0  0  0  0  0  0  0  0  0  0
    0.4441    0.1379    4.7171 H   0  0  0  0  0  0  0  0  0  0  0  0
    0.6181    0.7026    3.0411 H   0  0  0  0  0  0  0  0  0  0  0  0
    6.8257   -0.6211    3.5249 H   0  0  0  0  0  0  0  0  0  0  0  0
    7.0805    2.3915    3.9392 H   0  0  0  0  0  0  0  0  0  0  0  0
   10.6655    1.1232    2.8722 H   0  0  0  0  0  0  0  0  0  0  0  0
    8.6132    0.9401    1.0213 H   0  0  0  0  0  0  0  0  0  0  0  0
    8.4159   -0.6104    1.8004 H   0  0  0  0  0  0  0  0  0  0  0  0
   10.9028    0.4095    0.3113 H   0  0  0  0  0  0  0  0  0  0  0  0
    9.6296   -0.5932   -0.3561 H   0  0  0  0  0  0  0  0  0  0  0  0
   11.4189   -1.4115    1.9707 H   0  0  0  0  0  0  0  0  0  0  0  0
   11.5139   -2.0050    0.2988 H   0  0  0  0  0  0  0  0  0  0  0  0
   10.0936   -2.3826    1.2871 H   0  0  0  0  0  0  0  0  0  0  0  0
   11.1290    1.7734    5.5105 H   0  0  0  0  0  0  0  0  0  0  0  0
   10.1512    4.6857    5.5992 H   0  0  0  0  0  0  0  0  0  0  0  0
   11.6509    5.7114    2.9208 H   0  0  0  0  0  0  0  0  0  0  0  0
   11.0800    4.5354    1.0775 H   0  0  0  0  0  0  0  0  0  0  0  0
    9.5869    2.7010    1.0758 H   0  0  0  0  0  0  0  0  0  0  0  0
  1  2  1  0  0  0  0
  1 26  1  0  0  0  0
  1 27  1  0  0  0  0
  1 28  1  0  0  0  0
  2  3  2  3  0  0  0
  2 25  1  0  0  0  0
  3  4  1  0  0  0  0
  3 29  1  0  0  0  0
  4  5  1  0  0  0  0
  4  6  2  3  0  0  0
  5 30  1  0  0  0  0
  5 31  1  0  0  0  0
  5 32  1  0  0  0  0
  6  7  1  0  0  0  0
  6 11  1  0  0  0  0
  7  8  1  0  0  0  0
  7 33  1  0  0  0  0
  7 34  1  0  0  0  0
  8  9  1  0  0  0  0
  8 35  1  0  0  0  0
  8 36  1  0  0  0  0
  9 10  1  0  0  0  0
  9 37  1  0  0  0  0
  9 38  1  0  0  0  0
 10 39  1  0  0  0  0
 10 40  1  0  0  0  0
 10 41  1  0  0  0  0
 11 12  2  3  0  0  0
 11 42  1  0  0  0  0
 12 13  1  0  0  0  0
 12 43  1  0  0  0  0
 13 14  2  3  0  0  0
 13 18  1  0  0  0  0
 14 15  1  0  0  0  0
 14 44  1  0  0  0  0
 15 16  1  0  0  0  0
 15 45  1  0  0  0  0
 15 46  1  0  0  0  0
 16 17  1  0  0  0  0
 16 47  1  0  0  0  0
 16 48  1  0  0  0  0
 17 49  1  0  0  0  0
 17 50  1  0  0  0  0
 17 51  1  0  0  0  0
 18 19  2  3  0  0  0
 19 20  1  0  0  0  0
 19 52  1  0  0  0  0
 20 21  2  3  0  0  0
 20 53  1  0  0  0  0
 21 22  1  0  0  0  0
 22 23  2  3  0  0  0
 22 54  1  0  0  0  0
 23 24  1  0  0  0  0
 23 55  1  0  0  0  0
 24 25  2  3  0  0  0
 24 56  1  0  0  0  0
M  END
$$$$
