
 OpenBabel04232216403D

183182  0  0  0  0  0  0  0  0999 V2000
   26.8976  -11.1393   19.8075 C   0  0  0  0  0  0  0  0  0  0  0  0
   27.7334  -10.8211   18.8116 C   0  0  0  0  0  0  0  0  0  0  0  0
   28.5179   -9.5437   18.8045 C   0  0  0  0  0  0  0  0  0  0  0  0
   28.2021   -8.7281   17.6301 N   0  0  0  0  0  0  0  0  0  0  0  0
   28.9816   -7.4969   17.6638 C   0  0  0  0  0  0  0  0  0  0  0  0
   28.6464   -6.6551   16.4465 C   0  0  0  0  0  0  0  0  0  0  0  0
   29.4505   -5.3672   16.4629 C   0  0  0  0  0  0  0  0  0  0  0  0
   29.1185   -4.5261   15.2468 C   0  0  0  0  0  0  0  0  0  0  0  0
   29.9216   -3.2417   15.2650 C   0  0  0  0  0  0  0  0  0  0  0  0
   29.5901   -2.4031   14.0481 C   0  0  0  0  0  0  0  0  0  0  0  0
   30.3945   -1.1202   14.0656 C   0  0  0  0  0  0  0  0  0  0  0  0
   30.0616   -0.2810   12.8497 C   0  0  0  0  0  0  0  0  0  0  0  0
   30.8645    1.0028   12.8683 C   0  0  0  0  0  0  0  0  0  0  0  0
   30.5329    1.8410   11.6515 C   0  0  0  0  0  0  0  0  0  0  0  0
   31.3359    3.1248   11.6700 C   0  0  0  0  0  0  0  0  0  0  0  0
   31.0029    3.9639   10.4542 C   0  0  0  0  0  0  0  0  0  0  0  0
   31.8073    5.2468   10.4717 C   0  0  0  0  0  0  0  0  0  0  0  0
   31.4757    6.0851    9.2549 C   0  0  0  0  0  0  0  0  0  0  0  0
   32.2816    7.3672    9.2714 C   0  0  0  0  0  0  0  0  0  0  0  0
   31.9487    8.2066    8.0554 C   0  0  0  0  0  0  0  0  0  0  0  0
   32.7533    9.4900    8.0726 C   0  0  0  0  0  0  0  0  0  0  0  0
   32.4194   10.3311    6.8576 C   0  0  0  0  0  0  0  0  0  0  0  0
   33.2211   11.6169    6.8729 C   0  0  0  0  0  0  0  0  0  0  0  0
   32.8732   12.4521    5.6561 C   0  0  0  0  0  0  0  0  0  0  0  0
   33.6279   13.6735    5.7435 N   0  0  0  0  0  0  0  0  0  0  0  0
   33.3383   14.4726    4.5661 N   0  0  0  0  0  0  0  0  0  0  0  0
   34.0997   15.6650    4.5838 N   0  0  0  0  0  0  0  0  0  0  0  0
   35.4937   15.3894    4.5655 N   0  0  0  0  0  0  0  0  0  0  0  0
   35.8043   14.6306    3.3901 N   0  0  0  0  0  0  0  0  0  0  0  0
   35.4992   15.4202    2.2090 N   0  0  0  0  0  0  0  0  0  0  0  0
   36.2176   16.6483    2.2320 N   0  0  0  0  0  0  0  0  0  0  0  0
   37.6088   16.3568    2.2368 N   0  0  0  0  0  0  0  0  0  0  0  0
   37.9496   15.5933    1.0537 N   0  0  0  0  0  0  0  0  0  0  0  0
   37.6103   16.3351   -0.1036 N   0  0  0  0  0  0  0  0  0  0  0  0
   38.3279   17.5692   -0.1171 N   0  0  0  0  0  0  0  0  0  0  0  0
   39.7359   17.3022   -0.0842 N   0  0  0  0  0  0  0  0  0  0  0  0
   40.0817   16.5216   -1.2333 N   0  0  0  0  0  0  0  0  0  0  0  0
   39.7600   17.2583   -2.4355 N   0  0  0  0  0  0  0  0  0  0  0  0
   40.4345   18.5095   -2.4572 N   0  0  0  0  0  0  0  0  0  0  0  0
   41.8305   18.2697   -2.4141 N   0  0  0  0  0  0  0  0  0  0  0  0
   42.2022   17.4709   -3.5580 N   0  0  0  0  0  0  0  0  0  0  0  0
   41.8496   18.1678   -4.7689 N   0  0  0  0  0  0  0  0  0  0  0  0
   42.5396   19.4321   -4.8280 N   0  0  0  0  0  0  0  0  0  0  0  0
   43.9468   19.2265   -4.7835 N   0  0  0  0  0  0  0  0  0  0  0  0
   44.3520   18.4418   -5.9081 N   0  0  0  0  0  0  0  0  0  0  0  0
   43.9872   19.0921   -7.1304 N   0  0  0  0  0  0  0  0  0  0  0  0
   44.6183   20.3593   -7.1716 N   0  0  0  0  0  0  0  0  0  0  0  0
   46.0462   20.1613   -7.1274 N   0  0  0  0  0  0  0  0  0  0  0  0
   46.4828   19.3435   -8.2392 N   0  0  0  0  0  0  0  0  0  0  0  0
   46.1422   19.9773   -9.4780 N   0  0  0  0  0  0  0  0  0  0  0  0
   46.7518   21.2572   -9.5492 N   0  0  0  0  0  0  0  0  0  0  0  0
   48.1795   21.0984   -9.4896 N   0  0  0  0  0  0  0  0  0  0  0  0
   48.6219   20.2499  -10.5561 N   0  0  0  0  0  0  0  0  0  0  0  0
   48.2627   20.8596  -11.7945 N   0  0  0  0  0  0  0  0  0  0  0  0
   48.8602   22.1650  -11.8694 N   0  0  0  0  0  0  0  0  0  0  0  0
   50.2750   22.0007  -11.7540 N   0  0  0  0  0  0  0  0  0  0  0  0
   50.7365   21.1615  -12.8467 N   0  0  0  0  0  0  0  0  0  0  0  0
   50.3634   21.7578  -14.0972 N   0  0  0  0  0  0  0  0  0  0  0  0
   50.9795   23.0520  -14.2133 N   0  0  0  0  0  0  0  0  0  0  0  0
   52.4038   22.9245  -14.1186 N   0  0  0  0  0  0  0  0  0  0  0  0
   52.8775   22.0721  -15.1699 N   0  0  0  0  0  0  0  0  0  0  0  0
   52.5097   22.6479  -16.4408 N   0  0  0  0  0  0  0  0  0  0  0  0
   53.1098   23.9629  -16.5706 N   0  0  0  0  0  0  0  0  0  0  0  0
   54.5414   23.8549  -16.4596 N   0  0  0  0  0  0  0  0  0  0  0  0
   55.0545   23.0160  -17.5223 N   0  0  0  0  0  0  0  0  0  0  0  0
   54.6917   23.5570  -18.7913 N   0  0  0  0  0  0  0  0  0  0  0  0
   55.2618   24.8659  -18.9585 N   0  0  0  0  0  0  0  0  0  0  0  0
   56.6839   24.7890  -18.8467 N   0  0  0  0  0  0  0  0  0  0  0  0
   57.1897   23.9098  -19.8407 N   0  0  0  0  0  0  0  0  0  0  0  0
   56.8296   24.4309  -21.1210 N   0  0  0  0  0  0  0  0  0  0  0  0
   57.3632   25.7455  -21.2522 N   0  0  0  0  0  0  0  0  0  0  0  0
   58.7988   25.6891  -21.1399 N   0  0  0  0  0  0  0  0  0  0  0  0
   59.3371   24.8228  -22.1383 N   0  0  0  0  0  0  0  0  0  0  0  0
   58.9772   25.3206  -23.4275 N   0  0  0  0  0  0  0  0  0  0  0  0
   59.5005   26.6503  -23.5690 N   0  0  0  0  0  0  0  0  0  0  0  0
   60.9449   26.6399  -23.4384 N   0  0  0  0  0  0  0  0  0  0  0  0
   61.5188   25.7898  -24.4417 N   0  0  0  0  0  0  0  0  0  0  0  0
   61.1846   26.2647  -25.7501 N   0  0  0  0  0  0  0  0  0  0  0  0
   61.6676   27.5959  -25.9442 N   0  0  0  0  0  0  0  0  0  0  0  0
   63.0818   27.6169  -25.7808 N   0  0  0  0  0  0  0  0  0  0  0  0
   26.3354  -12.0629   19.7902 H   0  0  0  0  0  0  0  0  0  0  0  0
   26.7604  -10.4631   20.6433 H   0  0  0  0  0  0  0  0  0  0  0  0
   27.8521  -11.5179   17.9848 H   0  0  0  0  0  0  0  0  0  0  0  0
   29.5875   -9.7883   18.8087 H   0  0  0  0  0  0  0  0  0  0  0  0
   28.3045   -8.9765   19.7196 H   0  0  0  0  0  0  0  0  0  0  0  0
   27.2083   -8.4930   17.6442 H   0  0  0  0  0  0  0  0  0  0  0  0
   30.0522   -7.7280   17.6566 H   0  0  0  0  0  0  0  0  0  0  0  0
   28.7546   -6.9255   18.5707 H   0  0  0  0  0  0  0  0  0  0  0  0
   27.5772   -6.4142   16.4406 H   0  0  0  0  0  0  0  0  0  0  0  0
   28.8746   -7.2136   15.5315 H   0  0  0  0  0  0  0  0  0  0  0  0
   30.5214   -5.5994   16.4668 H   0  0  0  0  0  0  0  0  0  0  0  0
   29.2239   -4.8010   17.3733 H   0  0  0  0  0  0  0  0  0  0  0  0
   28.0484   -4.2909   15.2418 H   0  0  0  0  0  0  0  0  0  0  0  0
   29.3462   -5.0895   14.3352 H   0  0  0  0  0  0  0  0  0  0  0  0
   30.9919   -3.4757   15.2708 H   0  0  0  0  0  0  0  0  0  0  0  0
   29.6931   -2.6764   16.1754 H   0  0  0  0  0  0  0  0  0  0  0  0
   28.5201   -2.1675   14.0428 H   0  0  0  0  0  0  0  0  0  0  0  0
   29.8174   -2.9685   13.1375 H   0  0  0  0  0  0  0  0  0  0  0  0
   31.4646   -1.3557   14.0693 H   0  0  0  0  0  0  0  0  0  0  0  0
   30.1684   -0.5554   14.9767 H   0  0  0  0  0  0  0  0  0  0  0  0
   28.9913   -0.0466   12.8452 H   0  0  0  0  0  0  0  0  0  0  0  0
   30.2890   -0.8453   11.9385 H   0  0  0  0  0  0  0  0  0  0  0  0
   31.9348    0.7684   12.8743 H   0  0  0  0  0  0  0  0  0  0  0  0
   30.6359    1.5677   13.7788 H   0  0  0  0  0  0  0  0  0  0  0  0
   29.4627    2.0754   11.6455 H   0  0  0  0  0  0  0  0  0  0  0  0
   30.7615    1.2761   10.7409 H   0  0  0  0  0  0  0  0  0  0  0  0
   32.4062    2.8904   11.6746 H   0  0  0  0  0  0  0  0  0  0  0  0
   31.1084    3.6891   12.5812 H   0  0  0  0  0  0  0  0  0  0  0  0
   29.9329    4.1995   10.4504 H   0  0  0  0  0  0  0  0  0  0  0  0
   31.2290    3.3991    9.5430 H   0  0  0  0  0  0  0  0  0  0  0  0
   32.8773    5.0113   10.4769 H   0  0  0  0  0  0  0  0  0  0  0  0
   31.5801    5.8123   11.3823 H   0  0  0  0  0  0  0  0  0  0  0  0
   30.4060    6.3218    9.2505 H   0  0  0  0  0  0  0  0  0  0  0  0
   31.7016    5.5191    8.3444 H   0  0  0  0  0  0  0  0  0  0  0  0
   33.3514    7.1303    9.2744 H   0  0  0  0  0  0  0  0  0  0  0  0
   32.0568    7.9324   10.1826 H   0  0  0  0  0  0  0  0  0  0  0  0
   30.8786    8.4418    8.0518 H   0  0  0  0  0  0  0  0  0  0  0  0
   32.1748    7.6415    7.1444 H   0  0  0  0  0  0  0  0  0  0  0  0
   33.8231    9.2537    8.0753 H   0  0  0  0  0  0  0  0  0  0  0  0
   32.5280   10.0534    8.9849 H   0  0  0  0  0  0  0  0  0  0  0  0
   31.3486   10.5640    6.8551 H   0  0  0  0  0  0  0  0  0  0  0  0
   32.6453    9.7662    5.9463 H   0  0  0  0  0  0  0  0  0  0  0  0
   34.2922   11.3790    6.8774 H   0  0  0  0  0  0  0  0  0  0  0  0
   32.9966   12.1766    7.7893 H   0  0  0  0  0  0  0  0  0  0  0  0
   31.8093   12.6910    5.6663 H   0  0  0  0  0  0  0  0  0  0  0  0
   33.1107   11.8922    4.7455 H   0  0  0  0  0  0  0  0  0  0  0  0
   34.6193   13.4164    5.7110 H   0  0  0  0  0  0  0  0  0  0  0  0
   32.3503   14.7194    4.5462 H   0  0  0  0  0  0  0  0  0  0  0  0
   33.8832   16.2247    5.3992 H   0  0  0  0  0  0  0  0  0  0  0  0
   35.7393   14.8648    5.4066 H   0  0  0  0  0  0  0  0  0  0  0  0
   35.2602   13.7618    3.3734 H   0  0  0  0  0  0  0  0  0  0  0  0
   34.5016   15.6493    2.1942 H   0  0  0  0  0  0  0  0  0  0  0  0
   35.9628   17.1909    3.0633 H   0  0  0  0  0  0  0  0  0  0  0  0
   37.8645   15.8067    3.0473 H   0  0  0  0  0  0  0  0  0  0  0  0
   37.3998   14.7139    1.0568 H   0  0  0  0  0  0  0  0  0  0  0  0
   36.6035   16.5247   -0.1245 H   0  0  0  0  0  0  0  0  0  0  0  0
   38.1050   18.1114    0.7095 H   0  0  0  0  0  0  0  0  0  0  0  0
   39.9497   16.7707    0.7677 H   0  0  0  0  0  0  0  0  0  0  0  0
   39.5650   15.6379   -1.2275 H   0  0  0  0  0  0  0  0  0  0  0  0
   38.7564   17.4465   -2.4662 H   0  0  0  0  0  0  0  0  0  0  0  0
   40.1714   19.0717   -1.6511 H   0  0  0  0  0  0  0  0  0  0  0  0
   42.0740   17.7735   -1.5593 H   0  0  0  0  0  0  0  0  0  0  0  0
   41.7019   16.5786   -3.5388 H   0  0  0  0  0  0  0  0  0  0  0  0
   40.8505   18.3552   -4.8041 H   0  0  0  0  0  0  0  0  0  0  0  0
   42.2335   20.0055   -4.0244 H   0  0  0  0  0  0  0  0  0  0  0  0
   44.2267   18.7390   -3.9362 H   0  0  0  0  0  0  0  0  0  0  0  0
   43.8750   17.5469   -5.8894 H   0  0  0  0  0  0  0  0  0  0  0  0
   42.9821   19.2413   -7.1353 H   0  0  0  0  0  0  0  0  0  0  0  0
   44.3131   20.9121   -6.3676 H   0  0  0  0  0  0  0  0  0  0  0  0
   46.2808   19.6852   -6.2425 H   0  0  0  0  0  0  0  0  0  0  0  0
   46.0046   18.4426   -8.2053 H   0  0  0  0  0  0  0  0  0  0  0  0
   45.1285   20.1043   -9.5091 H   0  0  0  0  0  0  0  0  0  0  0  0
   46.4060   21.8167   -8.7524 H   0  0  0  0  0  0  0  0  0  0  0  0
   48.3847   20.6216   -8.6060 H   0  0  0  0  0  0  0  0  0  0  0  0
   48.1397   19.3531  -10.4671 H   0  0  0  0  0  0  0  0  0  0  0  0
   47.2497   20.9809  -11.8044 H   0  0  0  0  0  0  0  0  0  0  0  0
   48.5052   22.7079  -11.0676 H   0  0  0  0  0  0  0  0  0  0  0  0
   50.4902   21.5566  -10.8528 H   0  0  0  0  0  0  0  0  0  0  0  0
   50.2774   20.2492  -12.7866 H   0  0  0  0  0  0  0  0  0  0  0  0
   49.3490   21.8509  -14.1750 H   0  0  0  0  0  0  0  0  0  0  0  0
   50.6799   23.6688  -13.4675 H   0  0  0  0  0  0  0  0  0  0  0  0
   52.6815   22.5113  -13.2360 H   0  0  0  0  0  0  0  0  0  0  0  0
   52.4632   21.1390  -15.0727 H   0  0  0  0  0  0  0  0  0  0  0  0
   51.4898   22.7287  -16.5193 H   0  0  0  0  0  0  0  0  0  0  0  0
   52.7965   24.5822  -15.8265 H   0  0  0  0  0  0  0  0  0  0  0  0
   54.8010   23.4696  -15.5465 H   0  0  0  0  0  0  0  0  0  0  0  0
   54.6505   22.0849  -17.4628 H   0  0  0  0  0  0  0  0  0  0  0  0
   53.6886   23.6407  -18.8946 H   0  0  0  0  0  0  0  0  0  0  0  0
   54.9122   25.4743  -18.2247 H   0  0  0  0  0  0  0  0  0  0  0  0
   56.9272   24.4078  -17.9315 H   0  0  0  0  0  0  0  0  0  0  0  0
   56.7817   22.9803  -19.7068 H   0  0  0  0  0  0  0  0  0  0  0  0
   55.8001   24.4702  -21.1852 H   0  0  0  0  0  0  0  0  0  0  0  0
   56.9793   26.3689  -20.5241 H   0  0  0  0  0  0  0  0  0  0  0  0
   59.0525   25.3248  -20.2121 H   0  0  0  0  0  0  0  0  0  0  0  0
   58.9432   23.8932  -22.0524 H   0  0  0  0  0  0  0  0  0  0  0  0
   57.9551   25.3419  -23.4940 H   0  0  0  0  0  0  0  0  0  0  0  0
   59.0976   27.2605  -22.8491 H   0  0  0  0  0  0  0  0  0  0  0  0
   61.1950   26.2799  -22.5065 H   0  0  0  0  0  0  0  0  0  0  0  0
   61.1676   24.8277  -24.3282 H   0  0  0  0  0  0  0  0  0  0  0  0
   60.1624   26.2696  -25.8622 H   0  0  0  0  0  0  0  0  0  0  0  0
   61.2492   28.1801  -25.2194 H   0  0  0  0  0  0  0  0  0  0  0  0
   63.4570   26.9479  -26.4487 H   0  0  0  0  0  0  0  0  0  0  0  0
   63.2922   27.2207  -24.8616 H   0  0  0  0  0  0  0  0  0  0  0  0
  1  2  2  0  0  0  0
  1 81  1  0  0  0  0
  1 82  1  0  0  0  0
  2  3  1  0  0  0  0
  2 83  1  0  0  0  0
  3  4  1  0  0  0  0
  3 84  1  0  0  0  0
  3 85  1  0  0  0  0
  4  5  1  0  0  0  0
  4 86  1  0  0  0  0
  5  6  1  0  0  0  0
  5 87  1  0  0  0  0
  5 88  1  0  0  0  0
  6  7  1  0  0  0  0
  6 89  1  0  0  0  0
  6 90  1  0  0  0  0
  7  8  1  0  0  0  0
  7 91  1  0  0  0  0
  7 92  1  0  0  0  0
  8  9  1  0  0  0  0
  8 93  1  0  0  0  0
  8 94  1  0  0  0  0
  9 10  1  0  0  0  0
  9 95  1  0  0  0  0
  9 96  1  0  0  0  0
 10 11  1  0  0  0  0
 10 97  1  0  0  0  0
 10 98  1  0  0  0  0
 11 12  1  0  0  0  0
 11 99  1  0  0  0  0
 11100  1  0  0  0  0
 12 13  1  0  0  0  0
 12101  1  0  0  0  0
 12102  1  0  0  0  0
 13 14  1  0  0  0  0
 13103  1  0  0  0  0
 13104  1  0  0  0  0
 14 15  1  0  0  0  0
 14105  1  0  0  0  0
 14106  1  0  0  0  0
 15 16  1  0  0  0  0
 15107  1  0  0  0  0
 15108  1  0  0  0  0
 16 17  1  0  0  0  0
 16109  1  0  0  0  0
 16110  1  0  0  0  0
 17 18  1  0  0  0  0
 17111  1  0  0  0  0
 17112  1  0  0  0  0
 18 19  1  0  0  0  0
 18113  1  0  0  0  0
 18114  1  0  0  0  0
 19 20  1  0  0  0  0
 19115  1  0  0  0  0
 19116  1  0  0  0  0
 20 21  1  0  0  0  0
 20117  1  0  0  0  0
 20118  1  0  0  0  0
 21 22  1  0  0  0  0
 21119  1  0  0  0  0
 21120  1  0  0  0  0
 22 23  1  0  0  0  0
 22121  1  0  0  0  0
 22122  1  0  0  0  0
 23 24  1  0  0  0  0
 23123  1  0  0  0  0
 23124  1  0  0  0  0
 24 25  1  0  0  0  0
 24125  1  0  0  0  0
 24126  1  0  0  0  0
 25 26  1  0  0  0  0
 25127  1  0  0  0  0
 26 27  1  0  0  0  0
 26128  1  0  0  0  0
 27 28  1  0  0  0  0
 27129  1  0  0  0  0
 28 29  1  0  0  0  0
 28130  1  0  0  0  0
 29 30  1  0  0  0  0
 29131  1  0  0  0  0
 30 31  1  0  0  0  0
 30132  1  0  0  0  0
 31 32  1  0  0  0  0
 31133  1  0  0  0  0
 32 33  1  0  0  0  0
 32134  1  0  0  0  0
 33 34  1  0  0  0  0
 33135  1  0  0  0  0
 34 35  1  0  0  0  0
 34136  1  0  0  0  0
 35 36  1  0  0  0  0
 35137  1  0  0  0  0
 36 37  1  0  0  0  0
 36138  1  0  0  0  0
 37 38  1  0  0  0  0
 37139  1  0  0  0  0
 38 39  1  0  0  0  0
 38140  1  0  0  0  0
 39 40  1  0  0  0  0
 39141  1  0  0  0  0
 40 41  1  0  0  0  0
 40142  1  0  0  0  0
 41 42  1  0  0  0  0
 41143  1  0  0  0  0
 42 43  1  0  0  0  0
 42144  1  0  0  0  0
 43 44  1  0  0  0  0
 43145  1  0  0  0  0
 44 45  1  0  0  0  0
 44146  1  0  0  0  0
 45 46  1  0  0  0  0
 45147  1  0  0  0  0
 46 47  1  0  0  0  0
 46148  1  0  0  0  0
 47 48  1  0  0  0  0
 47149  1  0  0  0  0
 48 49  1  0  0  0  0
 48150  1  0  0  0  0
 49 50  1  0  0  0  0
 49151  1  0  0  0  0
 50 51  1  0  0  0  0
 50152  1  0  0  0  0
 51 52  1  0  0  0  0
 51153  1  0  0  0  0
 52 53  1  0  0  0  0
 52154  1  0  0  0  0
 53 54  1  0  0  0  0
 53155  1  0  0  0  0
 54 55  1  0  0  0  0
 54156  1  0  0  0  0
 55 56  1  0  0  0  0
 55157  1  0  0  0  0
 56 57  1  0  0  0  0
 56158  1  0  0  0  0
 57 58  1  0  0  0  0
 57159  1  0  0  0  0
 58 59  1  0  0  0  0
 58160  1  0  0  0  0
 59 60  1  0  0  0  0
 59161  1  0  0  0  0
 60 61  1  0  0  0  0
 60162  1  0  0  0  0
 61 62  1  0  0  0  0
 61163  1  0  0  0  0
 62 63  1  0  0  0  0
 62164  1  0  0  0  0
 63 64  1  0  0  0  0
 63165  1  0  0  0  0
 64 65  1  0  0  0  0
 64166  1  0  0  0  0
 65 66  1  0  0  0  0
 65167  1  0  0  0  0
 66 67  1  0  0  0  0
 66168  1  0  0  0  0
 67 68  1  0  0  0  0
 67169  1  0  0  0  0
 68 69  1  0  0  0  0
 68170  1  0  0  0  0
 69 70  1  0  0  0  0
 69171  1  0  0  0  0
 70 71  1  0  0  0  0
 70172  1  0  0  0  0
 71 72  1  0  0  0  0
 71173  1  0  0  0  0
 72 73  1  0  0  0  0
 72174  1  0  0  0  0
 73 74  1  0  0  0  0
 73175  1  0  0  0  0
 74 75  1  0  0  0  0
 74176  1  0  0  0  0
 75 76  1  0  0  0  0
 75177  1  0  0  0  0
 76 77  1  0  0  0  0
 76178  1  0  0  0  0
 77 78  1  0  0  0  0
 77179  1  0  0  0  0
 78 79  1  0  0  0  0
 78180  1  0  0  0  0
 79 80  1  0  0  0  0
 79181  1  0  0  0  0
 80182  1  0  0  0  0
 80183  1  0  0  0  0
M  END
$$$$
