
 OpenBabel04232216583D

 75 74  0  0  0  0  0  0  0  0999 V2000
   22.4395    9.1925   13.8244 N   0  0  0  0  0  0  0  0  0  0  0  0
   21.9587    7.8387   13.8276 N   0  0  0  0  0  0  0  0  0  0  0  0
   20.5601    7.8261   14.2344 O   0  0  0  0  0  0  0  0  0  0  0  0
   20.1109    6.4745   14.1884 C   0  0  0  0  0  0  0  0  0  0  0  0
   18.6516    6.4261   14.6250 C   0  0  0  0  0  0  0  0  0  0  0  0
   18.0987    5.0547   14.5797 N   0  0  0  0  0  0  0  0  0  0  0  0
   18.8180    4.2638   15.5457 N   0  0  0  0  0  0  0  0  0  0  0  0
   18.3146    2.9537   15.5736 N   0  0  0  0  0  0  0  0  0  0  0  0
   19.1148    2.1216   16.4228 N   0  0  0  0  0  0  0  0  0  0  0  0
   18.6622    0.7724   16.3991 N   0  0  0  0  0  0  0  0  0  0  0  0
   18.7881    0.1905   15.1097 N   0  0  0  0  0  0  0  0  0  0  0  0
   18.3569   -1.1617   15.1455 N   0  0  0  0  0  0  0  0  0  0  0  0
   18.4115   -1.7445   13.8542 N   0  0  0  0  0  0  0  0  0  0  0  0
   19.7418   -1.8740   13.3607 N   0  0  0  0  0  0  0  0  0  0  0  0
   19.6858   -2.7125   11.9279 S   0  0  0  0  0  0  0  0  0  0  0  0
   21.6758   -2.6921   11.4329 S   0  0  0  0  0  0  0  0  0  0  0  0
   22.6264   -3.7433   12.9118 S   0  0  0  0  0  0  0  0  0  0  0  0
   21.9146   -5.6586   12.8068 S   0  0  0  0  0  0  0  0  0  0  0  0
   22.9883   -6.6504   14.2372 S   0  0  0  0  0  0  0  0  0  0  0  0
   22.1641   -8.5216   14.3598 S   0  0  0  0  0  0  0  0  0  0  0  0
   22.5809   -9.4327   12.5534 S   0  0  0  0  0  0  0  0  0  0  0  0
   24.2362   -9.3351   12.5256 N   0  0  0  0  0  0  0  0  0  0  0  0
   24.8260  -10.0969   13.5964 N   0  0  0  0  0  0  0  0  0  0  0  0
   26.2654  -10.0906   13.5795 N   0  0  0  0  0  0  0  0  0  0  0  0
   26.8150  -10.8295   14.7125 N   0  0  0  0  0  0  0  0  0  0  0  0
   26.4528  -12.2330   14.7157 N   0  0  0  0  0  0  0  0  0  0  0  0
   26.9600  -12.9428   15.8676 N   0  0  0  0  0  0  0  0  0  0  0  0
   26.4306  -12.4808   17.1002 N   0  0  0  0  0  0  0  0  0  0  0  0
   26.9241  -13.2577   18.1712 N   0  0  0  0  0  0  0  0  0  0  0  0
   26.4737  -12.7043   19.4009 N   0  0  0  0  0  0  0  0  0  0  0  0
   26.9668  -13.4711   20.4724 N   0  0  0  0  0  0  0  0  0  0  0  0
   28.3961  -13.3882   20.4955 N   0  0  0  0  0  0  0  0  0  0  0  0
   28.8728  -14.1235   21.6713 C   0  0  0  0  0  0  0  0  0  0  0  0
   30.3968  -14.0840   21.7064 C   0  0  0  0  0  0  0  0  0  0  0  0
   30.9176  -14.8640   22.9119 C   0  0  0  0  0  0  0  0  0  0  0  0
   32.4411  -14.8403   22.9743 C   0  0  0  0  0  0  0  0  0  0  0  0
   32.9485  -15.6180   24.1768 C   0  0  0  0  0  0  0  0  0  0  0  0
   23.4410    9.2276   13.6253 H   0  0  0  0  0  0  0  0  0  0  0  0
   22.3072    9.5605   14.7642 H   0  0  0  0  0  0  0  0  0  0  0  0
   22.3717    7.3310   14.6125 H   0  0  0  0  0  0  0  0  0  0  0  0
   20.7284    5.8798   14.8716 H   0  0  0  0  0  0  0  0  0  0  0  0
   20.2188    6.0806   13.1700 H   0  0  0  0  0  0  0  0  0  0  0  0
   18.0506    7.0518   13.9484 H   0  0  0  0  0  0  0  0  0  0  0  0
   18.5213    6.8750   15.6180 H   0  0  0  0  0  0  0  0  0  0  0  0
   18.2451    4.7230   13.6244 H   0  0  0  0  0  0  0  0  0  0  0  0
   18.7414    4.6976   16.4691 H   0  0  0  0  0  0  0  0  0  0  0  0
   18.3704    2.5477   14.6327 H   0  0  0  0  0  0  0  0  0  0  0  0
   19.0930    2.4860   17.3773 H   0  0  0  0  0  0  0  0  0  0  0  0
   17.6938    0.7051   16.7348 H   0  0  0  0  0  0  0  0  0  0  0  0
   19.7808    0.1750   14.8223 H   0  0  0  0  0  0  0  0  0  0  0  0
   17.4042   -1.2465   15.5169 H   0  0  0  0  0  0  0  0  0  0  0  0
   17.8216   -1.2504   13.1775 H   0  0  0  0  0  0  0  0  0  0  0  0
   20.2916   -2.4208   14.0337 H   0  0  0  0  0  0  0  0  0  0  0  0
   24.5106   -8.3513   12.5513 H   0  0  0  0  0  0  0  0  0  0  0  0
   24.4994  -11.0676   13.5049 H   0  0  0  0  0  0  0  0  0  0  0  0
   26.6372   -9.1358   13.6258 H   0  0  0  0  0  0  0  0  0  0  0  0
   26.5003  -10.4320   15.6071 H   0  0  0  0  0  0  0  0  0  0  0  0
   26.7990  -12.6932   13.8648 H   0  0  0  0  0  0  0  0  0  0  0  0
   27.9849  -13.0117   15.8907 H   0  0  0  0  0  0  0  0  0  0  0  0
   25.4052  -12.5877   17.0794 H   0  0  0  0  0  0  0  0  0  0  0  0
   27.9453  -13.2853   18.2084 H   0  0  0  0  0  0  0  0  0  0  0  0
   25.4446  -12.6736   19.4287 H   0  0  0  0  0  0  0  0  0  0  0  0
   26.6542  -14.4441   20.3787 H   0  0  0  0  0  0  0  0  0  0  0  0
   28.6711  -12.4069   20.5898 H   0  0  0  0  0  0  0  0  0  0  0  0
   28.5399  -15.1683   21.6192 H   0  0  0  0  0  0  0  0  0  0  0  0
   28.4651  -13.6834   22.5902 H   0  0  0  0  0  0  0  0  0  0  0  0
   30.7446  -13.0447   21.7590 H   0  0  0  0  0  0  0  0  0  0  0  0
   30.8026  -14.5163   20.7832 H   0  0  0  0  0  0  0  0  0  0  0  0
   30.5671  -15.9021   22.8552 H   0  0  0  0  0  0  0  0  0  0  0  0
   30.5036  -14.4339   23.8321 H   0  0  0  0  0  0  0  0  0  0  0  0
   32.7960  -13.8049   23.0357 H   0  0  0  0  0  0  0  0  0  0  0  0
   32.8592  -15.2743   22.0586 H   0  0  0  0  0  0  0  0  0  0  0  0
   32.5666  -15.1890   25.1090 H   0  0  0  0  0  0  0  0  0  0  0  0
   34.0413  -15.5929   24.2117 H   0  0  0  0  0  0  0  0  0  0  0  0
   32.6320  -16.6650   24.1267 H   0  0  0  0  0  0  0  0  0  0  0  0
  1  2  1  0  0  0  0
  1 38  1  0  0  0  0
  1 39  1  0  0  0  0
  2  3  1  0  0  0  0
  2 40  1  0  0  0  0
  3  4  1  0  0  0  0
  4  5  1  0  0  0  0
  4 41  1  0  0  0  0
  4 42  1  0  0  0  0
  5  6  1  0  0  0  0
  5 43  1  0  0  0  0
  5 44  1  0  0  0  0
  6  7  1  0  0  0  0
  6 45  1  0  0  0  0
  7  8  1  0  0  0  0
  7 46  1  0  0  0  0
  8  9  1  0  0  0  0
  8 47  1  0  0  0  0
  9 10  1  0  0  0  0
  9 48  1  0  0  0  0
 10 11  1  0  0  0  0
 10 49  1  0  0  0  0
 11 12  1  0  0  0  0
 11 50  1  0  0  0  0
 12 13  1  0  0  0  0
 12 51  1  0  0  0  0
 13 14  1  0  0  0  0
 13 52  1  0  0  0  0
 14 15  1  0  0  0  0
 14 53  1  0  0  0  0
 15 16  1  0  0  0  0
 16 17  1  0  0  0  0
 17 18  1  0  0  0  0
 18 19  1  0  0  0  0
 19 20  1  0  0  0  0
 20 21  1  0  0  0  0
 21 22  1  0  0  0  0
 22 23  1  0  0  0  0
 22 54  1  0  0  0  0
 23 24  1  0  0  0  0
 23 55  1  0  0  0  0
 24 25  1  0  0  0  0
 24 56  1  0  0  0  0
 25 26  1  0  0  0  0
 25 57  1  0  0  0  0
 26 27  1  0  0  0  0
 26 58  1  0  0  0  0
 27 28  1  0  0  0  0
 27 59  1  0  0  0  0
 28 29  1  0  0  0  0
 28 60  1  0  0  0  0
 29 30  1  0  0  0  0
 29 61  1  0  0  0  0
 30 31  1  0  0  0  0
 30 62  1  0  0  0  0
 31 32  1  0  0  0  0
 31 63  1  0  0  0  0
 32 33  1  0  0  0  0
 32 64  1  0  0  0  0
 33 34  1  0  0  0  0
 33 65  1  0  0  0  0
 33 66  1  0  0  0  0
 34 35  1  0  0  0  0
 34 67  1  0  0  0  0
 34 68  1  0  0  0  0
 35 36  1  0  0  0  0
 35 69  1  0  0  0  0
 35 70  1  0  0  0  0
 36 37  1  0  0  0  0
 36 71  1  0  0  0  0
 36 72  1  0  0  0  0
 37 73  1  0  0  0  0
 37 74  1  0  0  0  0
 37 75  1  0  0  0  0
M  END
$$$$
