
 OpenBabel04232216453D

 28 28  0  0  1  0  0  0  0  0999 V2000
    0.8750   -1.9171   -1.4796 C   0  0  0  0  0  0  0  0  0  0  0  0
    1.6615   -0.9130   -0.7099 C   0  0  3  0  0  0  0  0  0  0  0  0
    2.9287   -0.5466   -1.0703 C   0  0  0  0  0  0  0  0  0  0  0  0
    3.0346   -1.3523   -0.0425 C   0  0  0  0  0  0  0  0  0  0  0  0
    2.6836   -2.2553    1.0897 C   0  0  0  0  0  0  0  0  0  0  0  0
    3.2949   -3.6513    0.9335 C   0  0  0  0  0  0  0  0  0  0  0  0
    2.9038   -4.5557    2.1104 C   0  0  0  0  0  0  0  0  0  0  0  0
    3.5020   -5.9580    1.9668 C   0  0  0  0  0  0  0  0  0  0  0  0
    3.1163   -6.8673    3.1361 C   0  0  0  0  0  0  0  0  0  0  0  0
    3.7186   -8.2556    2.9780 C   0  0  0  0  0  0  0  0  0  0  0  0
    0.1543   -1.4104   -2.1299 H   0  0  0  0  0  0  0  0  0  0  0  0
    0.3108   -2.5628   -0.7982 H   0  0  0  0  0  0  0  0  0  0  0  0
    1.5064   -2.5574   -2.1057 H   0  0  0  0  0  0  0  0  0  0  0  0
    1.0675   -0.2527   -0.0929 H   0  0  0  0  0  0  0  0  0  0  0  0
    3.5035    0.0299   -1.7581 H   0  0  0  0  0  0  0  0  0  0  0  0
    1.5998   -2.3559    1.2242 H   0  0  0  0  0  0  0  0  0  0  0  0
    3.0595   -1.7992    2.0136 H   0  0  0  0  0  0  0  0  0  0  0  0
    4.3883   -3.5770    0.8745 H   0  0  0  0  0  0  0  0  0  0  0  0
    2.9524   -4.1052   -0.0050 H   0  0  0  0  0  0  0  0  0  0  0  0
    1.8110   -4.6292    2.1674 H   0  0  0  0  0  0  0  0  0  0  0  0
    3.2469   -4.1046    3.0494 H   0  0  0  0  0  0  0  0  0  0  0  0
    4.5942   -5.8842    1.9082 H   0  0  0  0  0  0  0  0  0  0  0  0
    3.1565   -6.4073    1.0282 H   0  0  0  0  0  0  0  0  0  0  0  0
    2.0254   -6.9546    3.1997 H   0  0  0  0  0  0  0  0  0  0  0  0
    3.4625   -6.4314    4.0804 H   0  0  0  0  0  0  0  0  0  0  0  0
    3.3660   -8.7344    2.0586 H   0  0  0  0  0  0  0  0  0  0  0  0
    3.4359   -8.8936    3.8217 H   0  0  0  0  0  0  0  0  0  0  0  0
    4.8119   -8.2075    2.9416 H   0  0  0  0  0  0  0  0  0  0  0  0
  1  2  1  0  0  0  0
  1 11  1  0  0  0  0
  1 12  1  0  0  0  0
  1 13  1  0  0  0  0
  2  3  1  0  0  0  0
  2  4  1  0  0  0  0
  2 14  1  0  0  0  0
  3  4  2  0  0  0  0
  3 15  1  0  0  0  0
  4  5  1  0  0  0  0
  5  6  1  0  0  0  0
  5 16  1  0  0  0  0
  5 17  1  0  0  0  0
  6  7  1  0  0  0  0
  6 18  1  0  0  0  0
  6 19  1  0  0  0  0
  7  8  1  0  0  0  0
  7 20  1  0  0  0  0
  7 21  1  0  0  0  0
  8  9  1  0  0  0  0
  8 22  1  0  0  0  0
  8 23  1  0  0  0  0
  9 10  1  0  0  0  0
  9 24  1  0  0  0  0
  9 25  1  0  0  0  0
 10 26  1  0  0  0  0
 10 27  1  0  0  0  0
 10 28  1  0  0  0  0
M  END
$$$$
