
 OpenBabel04232216513D

 56 57  0  0  0  0  0  0  0  0999 V2000
    1.3202   -2.7050    0.2392 C   0  0  0  0  0  0  0  0  0  0  0  0
    2.8042   -2.8046    0.1852 C   0  0  0  0  0  0  0  0  0  0  0  0
    3.2922   -1.5853   -0.1405 N   0  0  0  0  0  0  0  0  0  0  0  0
    4.4895   -1.5897    0.3926 N   0  0  0  0  0  0  0  0  0  0  0  0
    5.2472   -0.1495    0.9454 S   0  0  0  0  0  0  0  0  0  0  0  0
    4.7586    1.2896   -0.1230 C   0  0  0  0  0  0  0  0  0  0  0  0
    3.9096    2.4484    0.4903 C   0  0  0  0  0  0  0  0  0  0  0  0
    4.4663    3.1297    1.7619 C   0  0  0  0  0  0  0  0  0  0  0  0
    3.4520    4.0933    2.4201 C   0  0  0  0  0  0  0  0  0  0  0  0
    3.9168    4.5816    3.8028 C   0  0  0  0  0  0  0  0  0  0  0  0
    2.8701    5.4227    4.5252 C   0  0  0  0  0  0  0  0  0  0  0  0
    4.9575   -2.8988    0.5299 C   0  0  0  0  0  0  0  0  0  0  0  0
    6.3444   -3.0258    0.3637 C   0  0  0  0  0  0  0  0  0  0  0  0
    6.5953   -3.3638   -0.9304 C   0  0  0  0  0  0  0  0  0  0  0  0
    7.7369   -4.2041   -1.1351 C   0  0  0  0  0  0  0  0  0  0  0  0
    7.3762   -5.4819   -1.2503 C   0  0  0  0  0  0  0  0  0  0  0  0
    8.1838   -6.6699   -1.0591 C   0  0  0  0  0  0  0  0  0  0  0  0
    9.3766   -6.6102   -0.1899 C   0  0  0  0  0  0  0  0  0  0  0  0
    7.5585   -7.7803   -1.4843 C   0  0  0  0  0  0  0  0  0  0  0  0
    7.7507   -9.0952   -0.9371 C   0  0  0  0  0  0  0  0  0  0  0  0
    6.5490   -9.6376   -0.6888 C   0  0  0  0  0  0  0  0  0  0  0  0
    5.7819   -9.2231    0.4940 C   0  0  0  0  0  0  0  0  0  0  0  0
    5.0861   -8.1238    0.9399 C   0  0  0  0  0  0  0  0  0  0  0  0
    4.6669   -6.5757    0.5408 C   0  0  0  0  0  0  0  0  0  0  0  0
    3.8170   -5.4255    0.6159 C   0  0  0  0  0  0  0  0  0  0  0  0
    3.8759   -3.8270    0.4544 C   0  0  0  0  0  0  0  0  0  0  0  0
    1.0729   -1.6241    0.3256 H   0  0  0  0  0  0  0  0  0  0  0  0
    0.8973   -3.1399    1.1420 H   0  0  0  0  0  0  0  0  0  0  0  0
    0.8186   -3.0230   -0.6750 H   0  0  0  0  0  0  0  0  0  0  0  0
    4.3150    0.9689   -1.0727 H   0  0  0  0  0  0  0  0  0  0  0  0
    5.7146    1.7596   -0.3997 H   0  0  0  0  0  0  0  0  0  0  0  0
    2.8895    2.0918    0.6691 H   0  0  0  0  0  0  0  0  0  0  0  0
    3.8164    3.2393   -0.2740 H   0  0  0  0  0  0  0  0  0  0  0  0
    5.3765    3.6979    1.5097 H   0  0  0  0  0  0  0  0  0  0  0  0
    4.7497    2.3644    2.4895 H   0  0  0  0  0  0  0  0  0  0  0  0
    2.4929    3.5739    2.5411 H   0  0  0  0  0  0  0  0  0  0  0  0
    3.2697    4.9596    1.7738 H   0  0  0  0  0  0  0  0  0  0  0  0
    4.8358    5.1691    3.7016 H   0  0  0  0  0  0  0  0  0  0  0  0
    4.1555    3.7165    4.4338 H   0  0  0  0  0  0  0  0  0  0  0  0
    2.6417    6.3399    3.9718 H   0  0  0  0  0  0  0  0  0  0  0  0
    3.2348    5.7128    5.5154 H   0  0  0  0  0  0  0  0  0  0  0  0
    1.9378    4.8647    4.6657 H   0  0  0  0  0  0  0  0  0  0  0  0
    7.0527   -2.9160    1.1496 H   0  0  0  0  0  0  0  0  0  0  0  0
    5.8017   -3.4659   -1.6500 H   0  0  0  0  0  0  0  0  0  0  0  0
    8.7273   -3.8642   -0.9284 H   0  0  0  0  0  0  0  0  0  0  0  0
    6.2955   -5.6962   -1.3297 H   0  0  0  0  0  0  0  0  0  0  0  0
    9.6767   -5.5813    0.0910 H   0  0  0  0  0  0  0  0  0  0  0  0
   10.2407   -7.0251   -0.7331 H   0  0  0  0  0  0  0  0  0  0  0  0
    9.2667   -7.1424    0.7580 H   0  0  0  0  0  0  0  0  0  0  0  0
    6.6097   -7.6680   -2.0195 H   0  0  0  0  0  0  0  0  0  0  0  0
    8.5387   -9.1179   -0.1845 H   0  0  0  0  0  0  0  0  0  0  0  0
    5.8815   -9.8235   -1.5408 H   0  0  0  0  0  0  0  0  0  0  0  0
    5.7374  -10.1228    1.1249 H   0  0  0  0  0  0  0  0  0  0  0  0
    4.5779   -8.4013    1.8760 H   0  0  0  0  0  0  0  0  0  0  0  0
    3.7312   -7.2143    0.4532 H   0  0  0  0  0  0  0  0  0  0  0  0
    2.7614   -5.6724    0.7718 H   0  0  0  0  0  0  0  0  0  0  0  0
  1  2  1  0  0  0  0
  1 27  1  0  0  0  0
  1 28  1  0  0  0  0
  1 29  1  0  0  0  0
  2  3  2  0  0  0  0
  2 26  1  0  0  0  0
  3  4  1  0  0  0  0
  4  5  1  0  0  0  0
  4 12  1  0  0  0  0
  5  6  1  0  0  0  0
  6  7  1  0  0  0  0
  6 30  1  0  0  0  0
  6 31  1  0  0  0  0
  7  8  1  0  0  0  0
  7 32  1  0  0  0  0
  7 33  1  0  0  0  0
  8  9  1  0  0  0  0
  8 34  1  0  0  0  0
  8 35  1  0  0  0  0
  9 10  1  0  0  0  0
  9 36  1  0  0  0  0
  9 37  1  0  0  0  0
 10 11  1  0  0  0  0
 10 38  1  0  0  0  0
 10 39  1  0  0  0  0
 11 40  1  0  0  0  0
 11 41  1  0  0  0  0
 11 42  1  0  0  0  0
 12 13  1  0  0  0  0
 12 26  2  0  0  0  0
 13 14  2  0  0  0  0
 13 43  1  0  0  0  0
 14 15  1  0  0  0  0
 14 44  1  0  0  0  0
 15 16  2  0  0  0  0
 15 45  1  0  0  0  0
 16 17  1  0  0  0  0
 16 46  1  0  0  0  0
 17 18  1  0  0  0  0
 17 19  2  0  0  0  0
 18 47  1  0  0  0  0
 18 48  1  0  0  0  0
 18 49  1  0  0  0  0
 19 20  1  0  0  0  0
 19 50  1  0  0  0  0
 20 21  2  0  0  0  0
 20 51  1  0  0  0  0
 21 22  1  0  0  0  0
 21 52  1  0  0  0  0
 22 23  2  0  0  0  0
 22 53  1  0  0  0  0
 23 24  1  0  0  0  0
 23 54  1  0  0  0  0
 24 25  2  0  0  0  0
 24 55  1  0  0  0  0
 25 26  1  0  0  0  0
 25 56  1  0  0  0  0
M  END
$$$$
