
 OpenBabel04232216553D

 46 47  0  0  1  0  0  0  0  0999 V2000
    1.5351   -1.3168   -0.6100 C   0  0  0  0  0  0  0  0  0  0  0  0
    2.9649   -0.9176   -0.7954 N   0  0  0  0  0  0  0  0  0  0  0  0
    3.2724    0.4963   -0.5538 C   0  0  0  0  0  0  0  0  0  0  0  0
    2.1277    1.5161   -0.3249 C   0  0  0  0  0  0  0  0  0  0  0  0
    1.3755    1.7484   -1.5060 O   0  0  0  0  0  0  0  0  0  0  0  0
    4.4768    1.0925   -0.3899 C   0  0  0  0  0  0  0  0  0  0  0  0
    5.7823    0.5057   -0.2941 C   0  0  0  0  0  0  0  0  0  0  0  0
    6.9828    1.4061   -0.3413 C   0  0  0  0  0  0  0  0  0  0  0  0
    5.9796   -0.7626    0.0407 C   0  0  0  0  0  0  0  0  0  0  0  0
    4.9675   -1.7774    0.2298 C   0  0  0  0  0  0  0  0  0  0  0  0
    5.0645   -2.5811    1.4693 C   0  0  0  0  0  0  0  0  0  0  0  0
    4.2366   -2.4627    2.3633 O   0  0  0  0  0  0  0  0  0  0  0  0
    6.2789   -3.4350    1.4931 C   0  0  3  0  0  0  0  0  0  0  0  0
    7.2771   -3.0884    2.5586 C   0  0  0  0  0  0  0  0  0  0  0  0
    5.9873   -4.8566    1.3209 N   0  0  0  0  0  0  0  0  0  0  0  0
    4.7431   -5.4452    1.8769 C   0  0  0  0  0  0  0  0  0  0  0  0
    6.3404   -5.3061    0.0593 C   0  0  0  0  0  0  0  0  0  0  0  0
    5.4923   -5.4431   -0.9607 C   0  0  0  0  0  0  0  0  0  0  0  0
    5.5427   -6.9248   -1.3751 C   0  0  0  0  0  0  0  0  0  0  0  0
    4.2331   -4.6676   -1.2175 C   0  0  0  0  0  0  0  0  0  0  0  0
    3.6481   -3.4365   -1.0714 C   0  0  0  0  0  0  0  0  0  0  0  0
    3.9475   -2.0145   -0.5927 C   0  0  0  0  0  0  0  0  0  0  0  0
    0.8250   -0.4848   -0.6587 H   0  0  0  0  0  0  0  0  0  0  0  0
    1.4184   -1.7620    0.3892 H   0  0  0  0  0  0  0  0  0  0  0  0
    1.2017   -2.0168   -1.3687 H   0  0  0  0  0  0  0  0  0  0  0  0
    2.4939    2.4954    0.0134 H   0  0  0  0  0  0  0  0  0  0  0  0
    1.4626    1.1869    0.4796 H   0  0  0  0  0  0  0  0  0  0  0  0
    1.8698    2.4099   -2.0198 H   0  0  0  0  0  0  0  0  0  0  0  0
    4.5076    2.1618   -0.2033 H   0  0  0  0  0  0  0  0  0  0  0  0
    6.7343    2.4591   -0.3765 H   0  0  0  0  0  0  0  0  0  0  0  0
    7.5975    1.1620   -1.2262 H   0  0  0  0  0  0  0  0  0  0  0  0
    7.6111    1.2465    0.5501 H   0  0  0  0  0  0  0  0  0  0  0  0
    6.9872   -1.0954    0.1883 H   0  0  0  0  0  0  0  0  0  0  0  0
    6.8341   -3.1537    0.5820 H   0  0  0  0  0  0  0  0  0  0  0  0
    6.9931   -3.4467    3.5458 H   0  0  0  0  0  0  0  0  0  0  0  0
    7.4081   -1.9992    2.6005 H   0  0  0  0  0  0  0  0  0  0  0  0
    8.2513   -3.5148    2.2893 H   0  0  0  0  0  0  0  0  0  0  0  0
    4.0269   -4.7293    2.2804 H   0  0  0  0  0  0  0  0  0  0  0  0
    4.9985   -6.1697    2.6551 H   0  0  0  0  0  0  0  0  0  0  0  0
    4.1845   -6.0207    1.1331 H   0  0  0  0  0  0  0  0  0  0  0  0
    7.2556   -5.8960    0.1567 H   0  0  0  0  0  0  0  0  0  0  0  0
    4.5421   -7.3684   -1.4004 H   0  0  0  0  0  0  0  0  0  0  0  0
    6.0577   -7.5311   -0.6022 H   0  0  0  0  0  0  0  0  0  0  0  0
    6.0770   -7.1079   -2.3072 H   0  0  0  0  0  0  0  0  0  0  0  0
    3.5572   -5.3636   -1.7335 H   0  0  0  0  0  0  0  0  0  0  0  0
    2.6572   -3.4438   -1.5277 H   0  0  0  0  0  0  0  0  0  0  0  0
  1  2  1  0  0  0  0
  1 23  1  0  0  0  0
  1 24  1  0  0  0  0
  1 25  1  0  0  0  0
  2  3  1  0  0  0  0
  2 22  1  0  0  0  0
  3  4  1  0  0  0  0
  3  6  2  0  0  0  0
  4  5  1  0  0  0  0
  4 26  1  0  0  0  0
  4 27  1  0  0  0  0
  5 28  1  0  0  0  0
  6  7  1  0  0  0  0
  6 29  1  0  0  0  0
  7  8  1  0  0  0  0
  7  9  2  0  0  0  0
  8 30  1  0  0  0  0
  8 31  1  0  0  0  0
  8 32  1  0  0  0  0
  9 10  1  0  0  0  0
  9 33  1  0  0  0  0
 10 11  1  0  0  0  0
 10 22  2  0  0  0  0
 11 12  2  0  0  0  0
 11 13  1  0  0  0  0
 13 14  1  0  0  0  0
 13 15  1  0  0  0  0
 13 34  1  0  0  0  0
 14 35  1  0  0  0  0
 14 36  1  0  0  0  0
 14 37  1  0  0  0  0
 15 16  1  0  0  0  0
 15 17  1  0  0  0  0
 16 38  1  0  0  0  0
 16 39  1  0  0  0  0
 16 40  1  0  0  0  0
 17 18  2  3  0  0  0
 17 41  1  0  0  0  0
 18 19  1  0  0  0  0
 18 20  1  0  0  0  0
 19 42  1  0  0  0  0
 19 43  1  0  0  0  0
 19 44  1  0  0  0  0
 20 21  2  3  0  0  0
 20 45  1  0  0  0  0
 21 22  1  0  0  0  0
 21 46  1  0  0  0  0
M  END
$$$$
