
 OpenBabel04232216553D

190190  0  0  0  0  0  0  0  0999 V2000
    0.2288    1.2547   -4.3588 C   0  0  0  0  0  0  0  0  0  0  0  0
    0.1524    0.4612   -3.1428 N   0  0  0  0  0  0  0  0  0  0  0  0
    0.4478    0.8204   -1.9547 C   0  0  0  0  0  0  0  0  0  0  0  0
    1.3791    0.0232   -2.4506 C   0  0  0  0  0  0  0  0  0  0  0  0
    2.0867   -0.8482   -3.4439 C   0  0  0  0  0  0  0  0  0  0  0  0
    2.9788   -1.9948   -2.9404 C   0  0  0  0  0  0  0  0  0  0  0  0
    3.7191   -2.7222   -4.0927 C   0  0  0  0  0  0  0  0  0  0  0  0
    2.7935   -3.4120   -5.1026 C   0  0  0  0  0  0  0  0  0  0  0  0
    3.5677   -4.1544   -6.1960 C   0  0  0  0  0  0  0  0  0  0  0  0
    2.5997   -4.8063   -7.1825 C   0  0  0  0  0  0  0  0  0  0  0  0
    3.3492   -5.5394   -8.2864 C   0  0  0  0  0  0  0  0  0  0  0  0
    2.3670   -6.1794   -9.2571 C   0  0  0  0  0  0  0  0  0  0  0  0
    3.1171   -6.9104  -10.3574 C   0  0  0  0  0  0  0  0  0  0  0  0
    2.1335   -7.5480  -11.3225 C   0  0  0  0  0  0  0  0  0  0  0  0
    2.8854   -8.2783  -12.4194 C   0  0  0  0  0  0  0  0  0  0  0  0
    1.9027   -8.9223  -13.3792 C   0  0  0  0  0  0  0  0  0  0  0  0
    2.6577   -9.6420  -14.4815 C   0  0  0  0  0  0  0  0  0  0  0  0
    1.6777  -10.2796  -15.4478 C   0  0  0  0  0  0  0  0  0  0  0  0
    2.4320  -11.0062  -16.5458 C   0  0  0  0  0  0  0  0  0  0  0  0
    1.4511  -11.6440  -17.5120 C   0  0  0  0  0  0  0  0  0  0  0  0
    2.2053  -12.3710  -18.6097 C   0  0  0  0  0  0  0  0  0  0  0  0
    1.2237  -13.0079  -19.5760 C   0  0  0  0  0  0  0  0  0  0  0  0
    1.9777  -13.7332  -20.6751 C   0  0  0  0  0  0  0  0  0  0  0  0
    0.9974  -14.3724  -21.6409 C   0  0  0  0  0  0  0  0  0  0  0  0
    1.7531  -15.1040  -22.7353 C   0  0  0  0  0  0  0  0  0  0  0  0
    0.7729  -15.7447  -23.7001 C   0  0  0  0  0  0  0  0  0  0  0  0
    1.5237  -16.4717  -24.7998 C   0  0  0  0  0  0  0  0  0  0  0  0
    0.5384  -17.1027  -25.7651 C   0  0  0  0  0  0  0  0  0  0  0  0
    1.2922  -17.8278  -26.8630 C   0  0  0  0  0  0  0  0  0  0  0  0
    0.3106  -18.4643  -27.8272 C   0  0  0  0  0  0  0  0  0  0  0  0
    1.0663  -19.1908  -28.9227 C   0  0  0  0  0  0  0  0  0  0  0  0
    0.0845  -19.8270  -29.8871 C   0  0  0  0  0  0  0  0  0  0  0  0
    0.8392  -20.5513  -30.9846 C   0  0  0  0  0  0  0  0  0  0  0  0
   -0.1428  -21.1879  -31.9489 C   0  0  0  0  0  0  0  0  0  0  0  0
    0.6114  -21.9128  -33.0468 C   0  0  0  0  0  0  0  0  0  0  0  0
   -0.3706  -22.5497  -34.0113 C   0  0  0  0  0  0  0  0  0  0  0  0
    0.3836  -23.2748  -35.1093 C   0  0  0  0  0  0  0  0  0  0  0  0
   -0.5979  -23.9122  -36.0743 C   0  0  0  0  0  0  0  0  0  0  0  0
    0.1575  -24.6372  -37.1722 C   0  0  0  0  0  0  0  0  0  0  0  0
   -0.8220  -25.2771  -38.1375 C   0  0  0  0  0  0  0  0  0  0  0  0
   -0.0655  -26.0011  -39.2372 C   0  0  0  0  0  0  0  0  0  0  0  0
   -1.0477  -26.6385  -40.2003 C   0  0  0  0  0  0  0  0  0  0  0  0
   -0.3110  -27.3623  -41.3124 C   0  0  0  0  0  0  0  0  0  0  0  0
   -1.3183  -27.9780  -42.2604 C   0  0  0  0  0  0  0  0  0  0  0  0
   -0.6152  -28.6152  -43.3148 O   0  0  0  0  0  0  0  0  0  0  0  0
   -1.5258  -29.2741  -44.1837 C   0  0  0  0  0  0  0  0  0  0  0  0
   -0.8456  -29.9961  -45.1944 O   0  0  0  0  0  0  0  0  0  0  0  0
    0.0305  -30.9734  -44.6396 C   0  0  0  0  0  0  0  0  0  0  0  0
    0.7715  -31.6251  -45.6575 O   0  0  0  0  0  0  0  0  0  0  0  0
    1.5626  -30.6923  -46.3789 C   0  0  0  0  0  0  0  0  0  0  0  0
    2.2429  -31.3451  -47.4368 O   0  0  0  0  0  0  0  0  0  0  0  0
    1.3291  -31.9864  -48.3226 C   0  0  0  0  0  0  0  0  0  0  0  0
    2.0134  -32.7105  -49.3436 O   0  0  0  0  0  0  0  0  0  0  0  0
    2.8424  -33.7161  -48.7733 C   0  0  0  0  0  0  0  0  0  0  0  0
    3.5792  -34.3881  -49.7833 O   0  0  0  0  0  0  0  0  0  0  0  0
    4.3467  -33.4586  -50.5407 C   0  0  0  0  0  0  0  0  0  0  0  0
    5.0270  -34.1077  -51.6179 O   0  0  0  0  0  0  0  0  0  0  0  0
    4.0884  -34.7123  -52.5007 C   0  0  0  0  0  0  0  0  0  0  0  0
    4.7684  -35.4238  -53.5251 O   0  0  0  0  0  0  0  0  0  0  0  0
    5.6237  -36.3964  -52.9478 C   0  0  0  0  0  0  0  0  0  0  0  0
    6.3659  -37.0541  -53.9653 O   0  0  0  0  0  0  0  0  0  0  0  0
    7.1361  -36.1061  -54.6998 C   0  0  0  0  0  0  0  0  0  0  0  0
    7.8249  -36.7230  -55.7855 O   0  0  0  0  0  0  0  0  0  0  0  0
    6.9033  -37.3356  -56.6837 C   0  0  0  0  0  0  0  0  0  0  0  0
    7.5938  -38.0328  -57.7184 O   0  0  0  0  0  0  0  0  0  0  0  0
    8.3895  -39.0605  -57.1421 C   0  0  0  0  0  0  0  0  0  0  0  0
    9.0400  -39.7932  -58.1566 O   0  0  0  0  0  0  0  0  0  0  0  0
    9.9134  -40.7558  -57.5833 C   0  0  0  0  0  0  0  0  0  0  0  0
   10.6224  -41.4392  -58.5904 O   0  0  0  0  0  0  0  0  0  0  0  0
   11.4240  -40.5269  -59.3114 C   0  0  0  0  0  0  0  0  0  0  0  0
   12.0829  -41.2512  -60.3095 O   0  0  0  0  0  0  0  0  0  0  0  0
   12.8647  -40.2645  -60.9836 O   0  0  0  0  0  0  0  0  0  0  0  0
   13.5255  -40.8825  -62.0790 O   0  0  0  0  0  0  0  0  0  0  0  0
   14.3357  -39.9218  -62.7464 O   0  0  0  0  0  0  0  0  0  0  0  0
   15.0477  -40.5785  -63.7915 O   0  0  0  0  0  0  0  0  0  0  0  0
   15.8439  -39.6293  -64.5020 O   0  0  0  0  0  0  0  0  0  0  0  0
   16.5420  -40.2994  -65.5515 O   0  0  0  0  0  0  0  0  0  0  0  0
   17.3629  -39.3701  -66.2663 O   0  0  0  0  0  0  0  0  0  0  0  0
   18.0634  -40.0531  -67.3248 O   0  0  0  0  0  0  0  0  0  0  0  0
   -0.4364    2.1236   -4.3200 H   0  0  0  0  0  0  0  0  0  0  0  0
   -0.1055    0.6154   -5.1842 H   0  0  0  0  0  0  0  0  0  0  0  0
    1.2387    1.6003   -4.6124 H   0  0  0  0  0  0  0  0  0  0  0  0
    0.0750    1.4200   -1.1463 H   0  0  0  0  0  0  0  0  0  0  0  0
    2.7296   -0.1819   -4.0380 H   0  0  0  0  0  0  0  0  0  0  0  0
    1.3522   -1.2922   -4.1264 H   0  0  0  0  0  0  0  0  0  0  0  0
    2.3837   -2.7252   -2.3809 H   0  0  0  0  0  0  0  0  0  0  0  0
    3.7347   -1.5990   -2.2507 H   0  0  0  0  0  0  0  0  0  0  0  0
    4.3841   -3.4788   -3.6574 H   0  0  0  0  0  0  0  0  0  0  0  0
    4.3643   -2.0103   -4.6235 H   0  0  0  0  0  0  0  0  0  0  0  0
    2.1469   -2.6733   -5.5879 H   0  0  0  0  0  0  0  0  0  0  0  0
    2.1441   -4.1220   -4.5771 H   0  0  0  0  0  0  0  0  0  0  0  0
    4.2105   -4.9236   -5.7513 H   0  0  0  0  0  0  0  0  0  0  0  0
    4.2213   -3.4573   -6.7349 H   0  0  0  0  0  0  0  0  0  0  0  0
    1.9518   -4.0415   -7.6287 H   0  0  0  0  0  0  0  0  0  0  0  0
    1.9476   -5.5115   -6.6525 H   0  0  0  0  0  0  0  0  0  0  0  0
    3.9947   -6.3124   -7.8520 H   0  0  0  0  0  0  0  0  0  0  0  0
    3.9981   -4.8399   -8.8274 H   0  0  0  0  0  0  0  0  0  0  0  0
    1.7203   -5.4108   -9.6981 H   0  0  0  0  0  0  0  0  0  0  0  0
    1.7160   -6.8826   -8.7230 H   0  0  0  0  0  0  0  0  0  0  0  0
    3.7632   -7.6823   -9.9213 H   0  0  0  0  0  0  0  0  0  0  0  0
    3.7670   -6.2104  -10.8970 H   0  0  0  0  0  0  0  0  0  0  0  0
    1.4875   -6.7782  -11.7626 H   0  0  0  0  0  0  0  0  0  0  0  0
    1.4833   -8.2499  -10.7860 H   0  0  0  0  0  0  0  0  0  0  0  0
    3.5350   -9.0460  -11.9802 H   0  0  0  0  0  0  0  0  0  0  0  0
    3.5325   -7.5763  -12.9598 H   0  0  0  0  0  0  0  0  0  0  0  0
    1.2452   -8.1579  -13.8112 H   0  0  0  0  0  0  0  0  0  0  0  0
    1.2631   -9.6314  -12.8390 H   0  0  0  0  0  0  0  0  0  0  0  0
    3.3089  -10.4105  -14.0470 H   0  0  0  0  0  0  0  0  0  0  0  0
    3.3046   -8.9358  -15.0170 H   0  0  0  0  0  0  0  0  0  0  0  0
    1.0307   -9.5097  -15.8857 H   0  0  0  0  0  0  0  0  0  0  0  0
    1.0287  -10.9827  -14.9116 H   0  0  0  0  0  0  0  0  0  0  0  0
    3.0784  -11.7764  -16.1077 H   0  0  0  0  0  0  0  0  0  0  0  0
    3.0815  -10.3031  -17.0817 H   0  0  0  0  0  0  0  0  0  0  0  0
    0.8042  -10.8742  -17.9500 H   0  0  0  0  0  0  0  0  0  0  0  0
    0.8019  -12.3468  -16.9756 H   0  0  0  0  0  0  0  0  0  0  0  0
    2.8522  -13.1414  -18.1722 H   0  0  0  0  0  0  0  0  0  0  0  0
    2.8548  -11.6683  -19.1460 H   0  0  0  0  0  0  0  0  0  0  0  0
    0.5755  -12.2379  -20.0123 H   0  0  0  0  0  0  0  0  0  0  0  0
    0.5756  -13.7121  -19.0398 H   0  0  0  0  0  0  0  0  0  0  0  0
    2.6265  -14.5020  -20.2379 H   0  0  0  0  0  0  0  0  0  0  0  0
    2.6253  -13.0287  -21.2115 H   0  0  0  0  0  0  0  0  0  0  0  0
    0.3518  -13.6028  -22.0818 H   0  0  0  0  0  0  0  0  0  0  0  0
    0.3462  -15.0728  -21.1036 H   0  0  0  0  0  0  0  0  0  0  0  0
    2.3994  -15.8727  -22.2940 H   0  0  0  0  0  0  0  0  0  0  0  0
    2.4030  -14.4027  -23.2730 H   0  0  0  0  0  0  0  0  0  0  0  0
    0.1240  -14.9761  -24.1374 H   0  0  0  0  0  0  0  0  0  0  0  0
    0.1257  -16.4485  -23.1625 H   0  0  0  0  0  0  0  0  0  0  0  0
    2.1684  -17.2465  -24.3668 H   0  0  0  0  0  0  0  0  0  0  0  0
    2.1748  -15.7708  -25.3366 H   0  0  0  0  0  0  0  0  0  0  0  0
   -0.1074  -16.3303  -26.2008 H   0  0  0  0  0  0  0  0  0  0  0  0
   -0.1122  -17.8060  -25.2306 H   0  0  0  0  0  0  0  0  0  0  0  0
    1.9396  -18.5981  -26.4261 H   0  0  0  0  0  0  0  0  0  0  0  0
    1.9412  -17.1244  -27.3991 H   0  0  0  0  0  0  0  0  0  0  0  0
   -0.3366  -17.6947  -28.2657 H   0  0  0  0  0  0  0  0  0  0  0  0
   -0.3385  -19.1674  -27.2906 H   0  0  0  0  0  0  0  0  0  0  0  0
    1.7132  -19.9607  -28.4842 H   0  0  0  0  0  0  0  0  0  0  0  0
    1.7158  -18.4879  -29.4589 H   0  0  0  0  0  0  0  0  0  0  0  0
   -0.5633  -19.0568  -30.3236 H   0  0  0  0  0  0  0  0  0  0  0  0
   -0.5639  -20.5308  -29.3508 H   0  0  0  0  0  0  0  0  0  0  0  0
    1.4875  -21.3209  -30.5478 H   0  0  0  0  0  0  0  0  0  0  0  0
    1.4872  -19.8470  -31.5207 H   0  0  0  0  0  0  0  0  0  0  0  0
   -0.7909  -20.4179  -32.3855 H   0  0  0  0  0  0  0  0  0  0  0  0
   -0.7910  -21.8917  -31.4124 H   0  0  0  0  0  0  0  0  0  0  0  0
    1.2596  -22.6825  -32.6099 H   0  0  0  0  0  0  0  0  0  0  0  0
    1.2596  -21.2087  -33.5831 H   0  0  0  0  0  0  0  0  0  0  0  0
   -1.0187  -21.7798  -34.4479 H   0  0  0  0  0  0  0  0  0  0  0  0
   -1.0187  -23.2535  -33.4747 H   0  0  0  0  0  0  0  0  0  0  0  0
    1.0318  -24.0443  -34.6722 H   0  0  0  0  0  0  0  0  0  0  0  0
    1.0317  -22.5707  -35.6455 H   0  0  0  0  0  0  0  0  0  0  0  0
   -1.2461  -23.1426  -36.5111 H   0  0  0  0  0  0  0  0  0  0  0  0
   -1.2459  -24.6162  -35.5378 H   0  0  0  0  0  0  0  0  0  0  0  0
    0.8066  -25.4056  -36.7346 H   0  0  0  0  0  0  0  0  0  0  0  0
    0.8044  -23.9323  -37.7087 H   0  0  0  0  0  0  0  0  0  0  0  0
   -1.4726  -24.5088  -38.5734 H   0  0  0  0  0  0  0  0  0  0  0  0
   -1.4688  -25.9822  -37.6007 H   0  0  0  0  0  0  0  0  0  0  0  0
    0.5837  -26.7698  -38.8008 H   0  0  0  0  0  0  0  0  0  0  0  0
    0.5797  -25.2949  -39.7737 H   0  0  0  0  0  0  0  0  0  0  0  0
   -1.7000  -25.8672  -40.6287 H   0  0  0  0  0  0  0  0  0  0  0  0
   -1.6935  -27.3426  -39.6607 H   0  0  0  0  0  0  0  0  0  0  0  0
    0.3422  -28.1423  -40.9008 H   0  0  0  0  0  0  0  0  0  0  0  0
    0.3448  -26.6730  -41.8578 H   0  0  0  0  0  0  0  0  0  0  0  0
   -1.9698  -27.2035  -42.6798 H   0  0  0  0  0  0  0  0  0  0  0  0
   -1.9332  -28.7106  -41.7246 H   0  0  0  0  0  0  0  0  0  0  0  0
   -2.1518  -28.5234  -44.6765 H   0  0  0  0  0  0  0  0  0  0  0  0
   -2.1699  -29.9644  -43.6266 H   0  0  0  0  0  0  0  0  0  0  0  0
   -0.5623  -31.7305  -44.1172 H   0  0  0  0  0  0  0  0  0  0  0  0
    0.7369  -30.5286  -43.9284 H   0  0  0  0  0  0  0  0  0  0  0  0
    2.3151  -30.2540  -45.7157 H   0  0  0  0  0  0  0  0  0  0  0  0
    0.9542  -29.8879  -46.8075 H   0  0  0  0  0  0  0  0  0  0  0  0
    0.7084  -31.2292  -48.8124 H   0  0  0  0  0  0  0  0  0  0  0  0
    0.6726  -32.6868  -47.7928 H   0  0  0  0  0  0  0  0  0  0  0  0
    2.2235  -34.4565  -48.2569 H   0  0  0  0  0  0  0  0  0  0  0  0
    3.5552  -33.2882  -48.0594 H   0  0  0  0  0  0  0  0  0  0  0  0
    5.1081  -33.0084  -49.8954 H   0  0  0  0  0  0  0  0  0  0  0  0
    3.7292  -32.6590  -50.9660 H   0  0  0  0  0  0  0  0  0  0  0  0
    3.4740  -33.9389  -52.9727 H   0  0  0  0  0  0  0  0  0  0  0  0
    3.4328  -35.4138  -51.9715 H   0  0  0  0  0  0  0  0  0  0  0  0
    5.0248  -37.1527  -52.4308 H   0  0  0  0  0  0  0  0  0  0  0  0
    6.3363  -35.9614  -52.2376 H   0  0  0  0  0  0  0  0  0  0  0  0
    7.8915  -35.6658  -54.0412 H   0  0  0  0  0  0  0  0  0  0  0  0
    6.5154  -35.3037  -55.1136 H   0  0  0  0  0  0  0  0  0  0  0  0
    6.2770  -36.5702  -57.1522 H   0  0  0  0  0  0  0  0  0  0  0  0
    6.2546  -38.0520  -56.1651 H   0  0  0  0  0  0  0  0  0  0  0  0
    7.7552  -39.7489  -56.5717 H   0  0  0  0  0  0  0  0  0  0  0  0
    9.1466  -38.6166  -56.4852 H   0  0  0  0  0  0  0  0  0  0  0  0
    9.3246  -41.4941  -57.0347 H   0  0  0  0  0  0  0  0  0  0  0  0
   10.6268  -40.2837  -56.8952 H   0  0  0  0  0  0  0  0  0  0  0  0
   12.1616  -40.0552  -58.6499 H   0  0  0  0  0  0  0  0  0  0  0  0
   10.8122  -39.7461  -59.7858 H   0  0  0  0  0  0  0  0  0  0  0  0
   18.5193  -39.2605  -67.6483 H   0  0  0  0  0  0  0  0  0  0  0  0
  1  2  1  0  0  0  0
  1 80  1  0  0  0  0
  1 81  1  0  0  0  0
  1 82  1  0  0  0  0
  2  3  1  0  0  0  0
  2  4  1  0  0  0  0
  3  4  2  0  0  0  0
  3 83  1  0  0  0  0
  4  5  1  0  0  0  0
  5  6  1  0  0  0  0
  5 84  1  0  0  0  0
  5 85  1  0  0  0  0
  6  7  1  0  0  0  0
  6 86  1  0  0  0  0
  6 87  1  0  0  0  0
  7  8  1  0  0  0  0
  7 88  1  0  0  0  0
  7 89  1  0  0  0  0
  8  9  1  0  0  0  0
  8 90  1  0  0  0  0
  8 91  1  0  0  0  0
  9 10  1  0  0  0  0
  9 92  1  0  0  0  0
  9 93  1  0  0  0  0
 10 11  1  0  0  0  0
 10 94  1  0  0  0  0
 10 95  1  0  0  0  0
 11 12  1  0  0  0  0
 11 96  1  0  0  0  0
 11 97  1  0  0  0  0
 12 13  1  0  0  0  0
 12 98  1  0  0  0  0
 12 99  1  0  0  0  0
 13 14  1  0  0  0  0
 13100  1  0  0  0  0
 13101  1  0  0  0  0
 14 15  1  0  0  0  0
 14102  1  0  0  0  0
 14103  1  0  0  0  0
 15 16  1  0  0  0  0
 15104  1  0  0  0  0
 15105  1  0  0  0  0
 16 17  1  0  0  0  0
 16106  1  0  0  0  0
 16107  1  0  0  0  0
 17 18  1  0  0  0  0
 17108  1  0  0  0  0
 17109  1  0  0  0  0
 18 19  1  0  0  0  0
 18110  1  0  0  0  0
 18111  1  0  0  0  0
 19 20  1  0  0  0  0
 19112  1  0  0  0  0
 19113  1  0  0  0  0
 20 21  1  0  0  0  0
 20114  1  0  0  0  0
 20115  1  0  0  0  0
 21 22  1  0  0  0  0
 21116  1  0  0  0  0
 21117  1  0  0  0  0
 22 23  1  0  0  0  0
 22118  1  0  0  0  0
 22119  1  0  0  0  0
 23 24  1  0  0  0  0
 23120  1  0  0  0  0
 23121  1  0  0  0  0
 24 25  1  0  0  0  0
 24122  1  0  0  0  0
 24123  1  0  0  0  0
 25 26  1  0  0  0  0
 25124  1  0  0  0  0
 25125  1  0  0  0  0
 26 27  1  0  0  0  0
 26126  1  0  0  0  0
 26127  1  0  0  0  0
 27 28  1  0  0  0  0
 27128  1  0  0  0  0
 27129  1  0  0  0  0
 28 29  1  0  0  0  0
 28130  1  0  0  0  0
 28131  1  0  0  0  0
 29 30  1  0  0  0  0
 29132  1  0  0  0  0
 29133  1  0  0  0  0
 30 31  1  0  0  0  0
 30134  1  0  0  0  0
 30135  1  0  0  0  0
 31 32  1  0  0  0  0
 31136  1  0  0  0  0
 31137  1  0  0  0  0
 32 33  1  0  0  0  0
 32138  1  0  0  0  0
 32139  1  0  0  0  0
 33 34  1  0  0  0  0
 33140  1  0  0  0  0
 33141  1  0  0  0  0
 34 35  1  0  0  0  0
 34142  1  0  0  0  0
 34143  1  0  0  0  0
 35 36  1  0  0  0  0
 35144  1  0  0  0  0
 35145  1  0  0  0  0
 36 37  1  0  0  0  0
 36146  1  0  0  0  0
 36147  1  0  0  0  0
 37 38  1  0  0  0  0
 37148  1  0  0  0  0
 37149  1  0  0  0  0
 38 39  1  0  0  0  0
 38150  1  0  0  0  0
 38151  1  0  0  0  0
 39 40  1  0  0  0  0
 39152  1  0  0  0  0
 39153  1  0  0  0  0
 40 41  1  0  0  0  0
 40154  1  0  0  0  0
 40155  1  0  0  0  0
 41 42  1  0  0  0  0
 41156  1  0  0  0  0
 41157  1  0  0  0  0
 42 43  1  0  0  0  0
 42158  1  0  0  0  0
 42159  1  0  0  0  0
 43 44  1  0  0  0  0
 43160  1  0  0  0  0
 43161  1  0  0  0  0
 44 45  1  0  0  0  0
 44162  1  0  0  0  0
 44163  1  0  0  0  0
 45 46  1  0  0  0  0
 46 47  1  0  0  0  0
 46164  1  0  0  0  0
 46165  1  0  0  0  0
 47 48  1  0  0  0  0
 48 49  1  0  0  0  0
 48166  1  0  0  0  0
 48167  1  0  0  0  0
 49 50  1  0  0  0  0
 50 51  1  0  0  0  0
 50168  1  0  0  0  0
 50169  1  0  0  0  0
 51 52  1  0  0  0  0
 52 53  1  0  0  0  0
 52170  1  0  0  0  0
 52171  1  0  0  0  0
 53 54  1  0  0  0  0
 54 55  1  0  0  0  0
 54172  1  0  0  0  0
 54173  1  0  0  0  0
 55 56  1  0  0  0  0
 56 57  1  0  0  0  0
 56174  1  0  0  0  0
 56175  1  0  0  0  0
 57 58  1  0  0  0  0
 58 59  1  0  0  0  0
 58176  1  0  0  0  0
 58177  1  0  0  0  0
 59 60  1  0  0  0  0
 60 61  1  0  0  0  0
 60178  1  0  0  0  0
 60179  1  0  0  0  0
 61 62  1  0  0  0  0
 62 63  1  0  0  0  0
 62180  1  0  0  0  0
 62181  1  0  0  0  0
 63 64  1  0  0  0  0
 64 65  1  0  0  0  0
 64182  1  0  0  0  0
 64183  1  0  0  0  0
 65 66  1  0  0  0  0
 66 67  1  0  0  0  0
 66184  1  0  0  0  0
 66185  1  0  0  0  0
 67 68  1  0  0  0  0
 68 69  1  0  0  0  0
 68186  1  0  0  0  0
 68187  1  0  0  0  0
 69 70  1  0  0  0  0
 70 71  1  0  0  0  0
 70188  1  0  0  0  0
 70189  1  0  0  0  0
 71 72  1  0  0  0  0
 72 73  1  0  0  0  0
 73 74  1  0  0  0  0
 74 75  1  0  0  0  0
 75 76  1  0  0  0  0
 76 77  1  0  0  0  0
 77 78  1  0  0  0  0
 78 79  1  0  0  0  0
 79190  1  0  0  0  0
M  END
$$$$
