
 OpenBabel04232216503D

 63 64  0  0  1  0  0  0  0  0999 V2000
    6.8698    3.2570    0.0435 C   0  0  0  0  0  0  0  0  0  0  0  0
    7.7183    3.1833   -1.4140 C   0  0  3  0  0  0  0  0  0  0  0  0
    6.2830    3.0669   -2.1779 C   0  0  0  0  0  3  0  0  0  0  0  0
    5.3732    1.7255   -2.0859 C   0  0  0  0  0  0  0  0  0  0  0  0
    5.1102    1.2346   -3.4883 C   0  0  0  0  0  0  0  0  0  0  0  0
    6.5303    0.8699   -4.0099 C   0  0  0  0  0  0  0  0  0  0  0  0
    6.9544    2.0389   -4.8274 C   0  0  0  0  0  0  0  0  0  0  0  0
    8.4014    1.9003   -4.7717 C   0  0  0  0  0  0  0  0  0  0  0  0
    8.9067    2.9675   -5.6400 C   0  0  0  0  0  0  0  0  0  0  0  0
   10.2545    2.5209   -6.0627 C   0  0  0  0  0  0  0  0  0  0  0  0
   10.6444    3.5714   -7.0525 C   0  0  0  0  0  0  0  0  0  0  0  0
   12.0416    3.7007   -6.9472 N   0  0  0  0  0  0  0  0  0  0  0  0
   12.2819    4.5727   -5.8877 C   0  0  0  0  0  0  0  0  0  0  0  0
   12.3815    5.7956   -6.1029 O   0  0  0  0  0  0  0  0  0  0  0  0
   12.7030    3.8220   -4.6205 C   0  0  0  0  0  0  0  0  0  0  0  0
   11.9347    3.6748   -3.4423 C   0  0  0  0  0  0  0  0  0  0  0  0
   10.5820    4.4432   -2.9156 C   0  0  0  0  0  0  0  0  0  0  0  0
   11.1244    5.9560   -3.4185 C   0  0  0  0  0  0  0  0  0  0  0  0
   12.7330    6.6828   -3.5407 C   0  0  0  0  0  0  0  0  0  0  0  0
   14.2625    6.3080   -4.0147 C   0  0  0  0  0  0  0  0  0  0  0  0
   15.0941    5.2614   -3.2530 C   0  0  0  0  0  0  0  0  0  0  0  0
   16.0290    4.3733   -4.0468 C   0  0  0  0  0  0  0  0  0  0  0  0
   15.3885    3.0378   -4.3913 C   0  0  0  0  0  0  0  0  0  0  0  0
   14.1176    3.2947   -5.1794 C   0  0  0  0  0  0  0  0  0  0  0  0
    9.2317    4.0429   -2.2239 C   0  0  0  0  0  0  0  0  0  0  0  0
    6.3277    4.1937    0.2534 H   0  0  0  0  0  0  0  0  0  0  0  0
    7.3483    2.8259    0.9233 H   0  0  0  0  0  0  0  0  0  0  0  0
    5.9787    2.5580    0.0229 H   0  0  0  0  0  0  0  0  0  0  0  0
    8.0572    2.1421   -1.3700 H   0  0  0  0  0  0  0  0  0  0  0  0
    5.6077    3.9287   -2.1706 H   0  0  0  0  0  0  0  0  0  0  0  0
    4.4061    1.8425   -1.5818 H   0  0  0  0  0  0  0  0  0  0  0  0
    5.8910    0.9255   -1.5241 H   0  0  0  0  0  0  0  0  0  0  0  0
    4.6288    2.0198   -4.0882 H   0  0  0  0  0  0  0  0  0  0  0  0
    4.4833    0.3294   -3.5897 H   0  0  0  0  0  0  0  0  0  0  0  0
    6.5987   -0.0594   -4.4754 H   0  0  0  0  0  0  0  0  0  0  0  0
    7.1784    0.7962   -3.1112 H   0  0  0  0  0  0  0  0  0  0  0  0
    6.6798    3.0312   -4.4729 H   0  0  0  0  0  0  0  0  0  0  0  0
    6.5616    1.9477   -5.8362 H   0  0  0  0  0  0  0  0  0  0  0  0
    8.7284    0.8981   -5.0819 H   0  0  0  0  0  0  0  0  0  0  0  0
    8.8367    2.0175   -3.7334 H   0  0  0  0  0  0  0  0  0  0  0  0
    8.8999    3.9413   -5.1212 H   0  0  0  0  0  0  0  0  0  0  0  0
    8.2869    3.0720   -6.5256 H   0  0  0  0  0  0  0  0  0  0  0  0
   10.2809    1.5202   -6.5030 H   0  0  0  0  0  0  0  0  0  0  0  0
   10.8865    2.4094   -5.1826 H   0  0  0  0  0  0  0  0  0  0  0  0
   10.2114    4.5469   -6.8042 H   0  0  0  0  0  0  0  0  0  0  0  0
   10.3141    3.2967   -8.0569 H   0  0  0  0  0  0  0  0  0  0  0  0
   12.4541    2.7727   -6.9189 H   0  0  0  0  0  0  0  0  0  0  0  0
   12.4037    3.1541   -2.6117 H   0  0  0  0  0  0  0  0  0  0  0  0
   10.5672    6.7031   -2.8435 H   0  0  0  0  0  0  0  0  0  0  0  0
   10.7237    6.0474   -4.4403 H   0  0  0  0  0  0  0  0  0  0  0  0
   12.8740    7.2457   -2.6158 H   0  0  0  0  0  0  0  0  0  0  0  0
   12.5242    7.4635   -4.2975 H   0  0  0  0  0  0  0  0  0  0  0  0
   14.8424    7.2326   -3.8371 H   0  0  0  0  0  0  0  0  0  0  0  0
   14.4087    6.2332   -5.1055 H   0  0  0  0  0  0  0  0  0  0  0  0
   14.4238    4.5942   -2.7178 H   0  0  0  0  0  0  0  0  0  0  0  0
   15.7179    5.7457   -2.4876 H   0  0  0  0  0  0  0  0  0  0  0  0
   16.9104    4.0900   -3.4258 H   0  0  0  0  0  0  0  0  0  0  0  0
   16.5107    4.8294   -4.9395 H   0  0  0  0  0  0  0  0  0  0  0  0
   15.2138    2.4537   -3.4822 H   0  0  0  0  0  0  0  0  0  0  0  0
   16.0798    2.4359   -5.0147 H   0  0  0  0  0  0  0  0  0  0  0  0
   13.9639    2.4212   -5.8236 H   0  0  0  0  0  0  0  0  0  0  0  0
   14.4819    4.0688   -5.9049 H   0  0  0  0  0  0  0  0  0  0  0  0
    9.6660    3.0512   -1.9907 H   0  0  0  0  0  0  0  0  0  0  0  0
  1  2  1  0  0  0  0
  1 26  1  0  0  0  0
  1 27  1  0  0  0  0
  1 28  1  0  0  0  0
  2  3  1  0  0  0  0
  2 25  1  0  0  0  0
  2 29  1  0  0  0  0
  3  4  1  0  0  0  0
  3 30  1  0  0  0  0
  4  5  1  0  0  0  0
  4 31  1  0  0  0  0
  4 32  1  0  0  0  0
  5  6  1  0  0  0  0
  5 33  1  0  0  0  0
  5 34  1  0  0  0  0
  6  7  1  0  0  0  0
  6 35  1  0  0  0  0
  6 36  1  0  0  0  0
  7  8  1  0  0  0  0
  7 37  1  0  0  0  0
  7 38  1  0  0  0  0
  8  9  1  0  0  0  0
  8 39  1  0  0  0  0
  8 40  1  0  0  0  0
  9 10  1  0  0  0  0
  9 41  1  0  0  0  0
  9 42  1  0  0  0  0
 10 11  1  0  0  0  0
 10 43  1  0  0  0  0
 10 44  1  0  0  0  0
 11 12  1  0  0  0  0
 11 45  1  0  0  0  0
 11 46  1  0  0  0  0
 12 13  1  0  0  0  0
 12 47  1  0  0  0  0
 13 14  2  0  0  0  0
 13 15  1  0  0  0  0
 15 16  2  3  0  0  0
 15 24  1  0  0  0  0
 16 17  1  0  0  0  0
 16 48  1  0  0  0  0
 17 18  1  0  0  0  0
 17 25  2  3  0  0  0
 18 19  1  0  0  0  0
 18 49  1  0  0  0  0
 18 50  1  0  0  0  0
 19 20  1  0  0  0  0
 19 51  1  0  0  0  0
 19 52  1  0  0  0  0
 20 21  1  0  0  0  0
 20 53  1  0  0  0  0
 20 54  1  0  0  0  0
 21 22  1  0  0  0  0
 21 55  1  0  0  0  0
 21 56  1  0  0  0  0
 22 23  1  0  0  0  0
 22 57  1  0  0  0  0
 22 58  1  0  0  0  0
 23 24  1  0  0  0  0
 23 59  1  0  0  0  0
 23 60  1  0  0  0  0
 24 61  1  0  0  0  0
 24 62  1  0  0  0  0
 25 63  1  0  0  0  0
M  END
$$$$
