
 OpenBabel04232217023D

118117  0  0  0  0  0  0  0  0999 V2000
    9.9298   18.1046  -29.2782 S   0  0  0  0  0  0  0  0  0  0  0  0
    9.4821   17.4712  -27.7935 N   0  0  0  0  0  0  0  0  0  0  0  0
   10.0358   16.1617  -27.4179 C   0  0  0  0  0  0  0  0  0  0  0  0
    9.5755   15.6960  -26.0463 C   0  0  0  0  0  0  0  0  0  0  0  0
   10.2037   14.3334  -25.7562 C   0  0  0  0  0  0  0  0  0  0  0  0
    9.7760   13.8107  -24.3934 C   0  0  0  0  0  0  0  0  0  0  0  0
   10.4048   12.5237  -24.1824 N   0  0  0  0  0  0  0  0  0  0  0  0
    9.9910   12.0414  -22.9076 N   0  0  0  0  0  0  0  0  0  0  0  0
   10.5804   10.7861  -22.6740 N   0  0  0  0  0  0  0  0  0  0  0  0
   10.1923   10.2931  -21.3947 N   0  0  0  0  0  0  0  0  0  0  0  0
   10.7614    9.0269  -21.1066 N   0  0  0  0  0  0  0  0  0  0  0  0
   12.1782    9.1145  -21.0894 N   0  0  0  0  0  0  0  0  0  0  0  0
   12.6873    7.8194  -20.8165 N   0  0  0  0  0  0  0  0  0  0  0  0
   14.1169    7.8713  -20.8124 N   0  0  0  0  0  0  0  0  0  0  0  0
   14.6668    6.5838  -20.5175 N   0  0  0  0  0  0  0  0  0  0  0  0
   16.1160    6.6332  -20.5106 N   0  0  0  0  0  0  0  0  0  0  0  0
   16.6784    5.3593  -20.2344 N   0  0  0  0  0  0  0  0  0  0  0  0
   18.0858    5.4704  -20.2197 N   0  0  0  0  0  0  0  0  0  0  0  0
   18.6128    4.2007  -19.9521 N   0  0  0  0  0  0  0  0  0  0  0  0
   20.0232    4.2675  -19.9669 N   0  0  0  0  0  0  0  0  0  0  0  0
   20.5980    3.0138  -19.6669 N   0  0  0  0  0  0  0  0  0  0  0  0
   22.0279    3.0262  -19.6504 N   0  0  0  0  0  0  0  0  0  0  0  0
   22.5541    3.8994  -18.6474 N   0  0  0  0  0  0  0  0  0  0  0  0
   23.9332    3.9124  -18.6867 N   0  0  0  0  0  0  0  0  0  0  0  0
   24.4019    4.7980  -17.7238 N   0  0  0  0  0  0  0  0  0  0  0  0
   25.7945    4.7912  -17.7290 N   0  0  0  0  0  0  0  0  0  0  0  0
   26.3001    5.7033  -16.7928 N   0  0  0  0  0  0  0  0  0  0  0  0
   27.7472    5.6887  -16.7602 N   0  0  0  0  0  0  0  0  0  0  0  0
   28.2904    6.1049  -18.0474 N   0  0  0  0  0  0  0  0  0  0  0  0
   29.9634    6.1408  -17.9448 S   0  0  0  0  0  0  0  0  0  0  0  0
   30.5184    6.7765  -19.8263 S   0  0  0  0  0  0  0  0  0  0  0  0
   29.7641    8.6839  -20.1286 S   0  0  0  0  0  0  0  0  0  0  0  0
   30.5495    9.9901  -18.7160 S   0  0  0  0  0  0  0  0  0  0  0  0
   29.7107   11.8919  -19.0481 S   0  0  0  0  0  0  0  0  0  0  0  0
   30.4548   13.2138  -17.5828 S   0  0  0  0  0  0  0  0  0  0  0  0
   29.6439   15.1354  -17.9126 S   0  0  0  0  0  0  0  0  0  0  0  0
   30.3938   16.4522  -16.4405 S   0  0  0  0  0  0  0  0  0  0  0  0
   29.5845   18.3762  -16.7663 S   0  0  0  0  0  0  0  0  0  0  0  0
   30.3350   19.6934  -15.2936 S   0  0  0  0  0  0  0  0  0  0  0  0
   29.5260   21.6211  -15.6175 S   0  0  0  0  0  0  0  0  0  0  0  0
   30.2781   22.9399  -14.1427 S   0  0  0  0  0  0  0  0  0  0  0  0
   29.4742   24.8742  -14.4583 S   0  0  0  0  0  0  0  0  0  0  0  0
   30.2215   26.1733  -12.9631 S   0  0  0  0  0  0  0  0  0  0  0  0
   29.4912   28.0924  -13.3179 S   0  0  0  0  0  0  0  0  0  0  0  0
   30.2288   29.4367  -11.9138 S   0  0  0  0  0  0  0  0  0  0  0  0
   32.2962   29.5217  -12.0413 S   0  0  0  0  0  0  0  0  0  0  0  0
   32.6058   30.1358  -13.5831 N   0  0  0  0  0  0  0  0  0  0  0  0
   34.2662   30.1996  -13.8371 S   0  0  0  0  0  0  0  0  0  0  0  0
   34.6532   30.7277  -15.3896 N   0  0  0  0  0  0  0  0  0  0  0  0
   34.1041   29.6941  -16.5877 S   0  0  0  0  0  0  0  0  0  0  0  0
   34.5291   30.2292  -18.1129 N   0  0  0  0  0  0  0  0  0  0  0  0
   36.1733   30.3012  -18.3393 S   0  0  0  0  0  0  0  0  0  0  0  0
   36.3950   30.9565  -20.2899 S   0  0  0  0  0  0  0  0  0  0  0  0
   35.5448   32.8367  -20.5330 S   0  0  0  0  0  0  0  0  0  0  0  0
   36.4495   34.2362  -19.2841 S   0  0  0  0  0  0  0  0  0  0  0  0
   35.4933   36.1062  -19.5545 S   0  0  0  0  0  0  0  0  0  0  0  0
   36.3599   37.5123  -18.2280 S   0  0  0  0  0  0  0  0  0  0  0  0
   35.4304   39.3945  -18.4985 S   0  0  0  0  0  0  0  0  0  0  0  0
   36.3032   40.7890  -17.1692 S   0  0  0  0  0  0  0  0  0  0  0  0
   35.3757   42.6680  -17.4381 S   0  0  0  0  0  0  0  0  0  0  0  0
   36.2496   44.0573  -16.1095 S   0  0  0  0  0  0  0  0  0  0  0  0
   35.3219   45.9338  -16.3796 S   0  0  0  0  0  0  0  0  0  0  0  0
   36.1956   47.3215  -15.0517 S   0  0  0  0  0  0  0  0  0  0  0  0
   35.2678   49.1969  -15.3223 S   0  0  0  0  0  0  0  0  0  0  0  0
   36.1415   50.5841  -13.9946 S   0  0  0  0  0  0  0  0  0  0  0  0
   35.2137   52.4591  -14.2653 S   0  0  0  0  0  0  0  0  0  0  0  0
   36.0874   53.8461  -12.9376 S   0  0  0  0  0  0  0  0  0  0  0  0
   35.1596   55.7210  -13.2083 S   0  0  0  0  0  0  0  0  0  0  0  0
   36.0334   57.1078  -11.8808 S   0  0  0  0  0  0  0  0  0  0  0  0
   35.1055   58.9825  -12.1515 S   0  0  0  0  0  0  0  0  0  0  0  0
   35.9793   60.3689  -10.8241 S   0  0  0  0  0  0  0  0  0  0  0  0
   35.0515   62.2427  -11.0951 S   0  0  0  0  0  0  0  0  0  0  0  0
   35.9254   63.6275   -9.7681 S   0  0  0  0  0  0  0  0  0  0  0  0
   34.9974   65.4987  -10.0402 S   0  0  0  0  0  0  0  0  0  0  0  0
   35.8712   66.8795   -8.7145 S   0  0  0  0  0  0  0  0  0  0  0  0
   34.9426   68.7433   -8.9904 S   0  0  0  0  0  0  0  0  0  0  0  0
   35.8172   70.1127   -7.6675 S   0  0  0  0  0  0  0  0  0  0  0  0
   34.8704   71.9519   -7.9368 S   0  0  0  0  0  0  0  0  0  0  0  0
   35.7841   73.3192   -6.6677 S   0  0  0  0  0  0  0  0  0  0  0  0
   34.8157   75.1324   -6.9238 S   0  0  0  0  0  0  0  0  0  0  0  0
   35.1953   75.7066   -8.8638 S   0  0  0  0  0  0  0  0  0  0  0  0
    9.2863   19.2821  -29.2235 H   0  0  0  0  0  0  0  0  0  0  0  0
    8.4764   17.4570  -27.7248 H   0  0  0  0  0  0  0  0  0  0  0  0
   11.1353   16.2319  -27.4171 H   0  0  0  0  0  0  0  0  0  0  0  0
    9.7486   15.4240  -28.1703 H   0  0  0  0  0  0  0  0  0  0  0  0
    8.4825   15.6132  -26.0178 H   0  0  0  0  0  0  0  0  0  0  0  0
    9.8716   16.4133  -25.2723 H   0  0  0  0  0  0  0  0  0  0  0  0
   11.2977   14.4156  -25.7944 H   0  0  0  0  0  0  0  0  0  0  0  0
    9.9097   13.6177  -26.5352 H   0  0  0  0  0  0  0  0  0  0  0  0
    8.6805   13.7081  -24.3720 H   0  0  0  0  0  0  0  0  0  0  0  0
   10.0668   14.5237  -23.6085 H   0  0  0  0  0  0  0  0  0  0  0  0
   11.4293   12.6155  -24.1746 H   0  0  0  0  0  0  0  0  0  0  0  0
    8.9771   11.9240  -22.8673 H   0  0  0  0  0  0  0  0  0  0  0  0
   11.5966   10.9130  -22.7304 H   0  0  0  0  0  0  0  0  0  0  0  0
    9.1587   10.1999  -21.3821 H   0  0  0  0  0  0  0  0  0  0  0  0
   10.5104    8.3409  -21.8087 H   0  0  0  0  0  0  0  0  0  0  0  0
   12.5207    9.7186  -20.3585 H   0  0  0  0  0  0  0  0  0  0  0  0
   12.3189    7.1645  -21.5069 H   0  0  0  0  0  0  0  0  0  0  0  0
   14.4151    8.5604  -20.1105 H   0  0  0  0  0  0  0  0  0  0  0  0
   14.3521    5.9169  -21.2336 H   0  0  0  0  0  0  0  0  0  0  0  0
   16.4679    7.2569  -19.7848 H   0  0  0  0  0  0  0  0  0  0  0  0
   16.4649    4.6628  -20.9334 H   0  0  0  0  0  0  0  0  0  0  0  0
   18.3734    6.1318  -19.5207 H   0  0  0  0  0  0  0  0  0  0  0  0
   18.2564    3.5437  -20.6564 H   0  0  0  0  0  0  0  0  0  0  0  0
   20.3101    4.9678  -19.2413 H   0  0  0  0  0  0  0  0  0  0  0  0
   20.2584    2.3199  -20.3721 H   0  0  0  0  0  0  0  0  0  0  0  0
   22.4322    3.3392  -20.5470 H   0  0  0  0  0  0  0  0  0  0  0  0
   22.2591    3.6086  -17.7057 H   0  0  0  0  0  0  0  0  0  0  0  0
   24.3022    4.2262  -19.5875 H   0  0  0  0  0  0  0  0  0  0  0  0
   24.0754    4.4980  -16.8046 H   0  0  0  0  0  0  0  0  0  0  0  0
   26.1100    5.0823  -18.6637 H   0  0  0  0  0  0  0  0  0  0  0  0
   25.9232    5.3883  -15.8579 H   0  0  0  0  0  0  0  0  0  0  0  0
   28.0445    4.7474  -16.5644 H   0  0  0  0  0  0  0  0  0  0  0  0
   27.9512    7.0409  -18.2432 H   0  0  0  0  0  0  0  0  0  0  0  0
   32.1756   31.0453  -13.6708 H   0  0  0  0  0  0  0  0  0  0  0  0
   35.6971   30.7671  -15.4622 H   0  0  0  0  0  0  0  0  0  0  0  0
   34.0879   31.1279  -18.3448 H   0  0  0  0  0  0  0  0  0  0  0  0
   34.5444   76.8831   -8.9288 H   0  0  0  0  0  0  0  0  0  0  0  0
  1  2  1  0  0  0  0
  1 82  1  0  0  0  0
  2  3  1  0  0  0  0
  2 83  1  0  0  0  0
  3  4  1  0  0  0  0
  3 84  1  0  0  0  0
  3 85  1  0  0  0  0
  4  5  1  0  0  0  0
  4 86  1  0  0  0  0
  4 87  1  0  0  0  0
  5  6  1  0  0  0  0
  5 88  1  0  0  0  0
  5 89  1  0  0  0  0
  6  7  1  0  0  0  0
  6 90  1  0  0  0  0
  6 91  1  0  0  0  0
  7  8  1  0  0  0  0
  7 92  1  0  0  0  0
  8  9  1  0  0  0  0
  8 93  1  0  0  0  0
  9 10  1  0  0  0  0
  9 94  1  0  0  0  0
 10 11  1  0  0  0  0
 10 95  1  0  0  0  0
 11 12  1  0  0  0  0
 11 96  1  0  0  0  0
 12 13  1  0  0  0  0
 12 97  1  0  0  0  0
 13 14  1  0  0  0  0
 13 98  1  0  0  0  0
 14 15  1  0  0  0  0
 14 99  1  0  0  0  0
 15 16  1  0  0  0  0
 15100  1  0  0  0  0
 16 17  1  0  0  0  0
 16101  1  0  0  0  0
 17 18  1  0  0  0  0
 17102  1  0  0  0  0
 18 19  1  0  0  0  0
 18103  1  0  0  0  0
 19 20  1  0  0  0  0
 19104  1  0  0  0  0
 20 21  1  0  0  0  0
 20105  1  0  0  0  0
 21 22  1  0  0  0  0
 21106  1  0  0  0  0
 22 23  1  0  0  0  0
 22107  1  0  0  0  0
 23 24  1  0  0  0  0
 23108  1  0  0  0  0
 24 25  1  0  0  0  0
 24109  1  0  0  0  0
 25 26  1  0  0  0  0
 25110  1  0  0  0  0
 26 27  1  0  0  0  0
 26111  1  0  0  0  0
 27 28  1  0  0  0  0
 27112  1  0  0  0  0
 28 29  1  0  0  0  0
 28113  1  0  0  0  0
 29 30  1  0  0  0  0
 29114  1  0  0  0  0
 30 31  1  0  0  0  0
 31 32  1  0  0  0  0
 32 33  1  0  0  0  0
 33 34  1  0  0  0  0
 34 35  1  0  0  0  0
 35 36  1  0  0  0  0
 36 37  1  0  0  0  0
 37 38  1  0  0  0  0
 38 39  1  0  0  0  0
 39 40  1  0  0  0  0
 40 41  1  0  0  0  0
 41 42  1  0  0  0  0
 42 43  1  0  0  0  0
 43 44  1  0  0  0  0
 44 45  1  0  0  0  0
 45 46  1  0  0  0  0
 46 47  1  0  0  0  0
 47 48  1  0  0  0  0
 47115  1  0  0  0  0
 48 49  1  0  0  0  0
 49 50  1  0  0  0  0
 49116  1  0  0  0  0
 50 51  1  0  0  0  0
 51 52  1  0  0  0  0
 51117  1  0  0  0  0
 52 53  1  0  0  0  0
 53 54  1  0  0  0  0
 54 55  1  0  0  0  0
 55 56  1  0  0  0  0
 56 57  1  0  0  0  0
 57 58  1  0  0  0  0
 58 59  1  0  0  0  0
 59 60  1  0  0  0  0
 60 61  1  0  0  0  0
 61 62  1  0  0  0  0
 62 63  1  0  0  0  0
 63 64  1  0  0  0  0
 64 65  1  0  0  0  0
 65 66  1  0  0  0  0
 66 67  1  0  0  0  0
 67 68  1  0  0  0  0
 68 69  1  0  0  0  0
 69 70  1  0  0  0  0
 70 71  1  0  0  0  0
 71 72  1  0  0  0  0
 72 73  1  0  0  0  0
 73 74  1  0  0  0  0
 74 75  1  0  0  0  0
 75 76  1  0  0  0  0
 76 77  1  0  0  0  0
 77 78  1  0  0  0  0
 78 79  1  0  0  0  0
 79 80  1  0  0  0  0
 80 81  1  0  0  0  0
 81118  1  0  0  0  0
M  END
$$$$
