
 OpenBabel04232216443D

 61 62  0  0  0  0  0  0  0  0999 V2000
    5.7781   -0.0206   -1.8873 C   0  0  0  0  0  0  0  0  0  0  0  0
    6.0143    1.5423   -2.0851 C   0  0  0  0  0  0  0  0  0  0  0  0
    4.8431    2.0859   -1.5091 C   0  0  0  0  0  0  0  0  0  0  0  0
    3.2991    1.7661   -1.8692 C   0  0  0  0  0  0  0  0  0  0  0  0
    2.2806    2.9374   -1.9590 C   0  0  0  0  0  0  0  0  0  0  0  0
    4.7568    2.3121    0.0408 C   0  0  0  0  0  0  0  0  0  0  0  0
    4.6167    3.8047    0.2904 C   0  0  0  0  0  0  0  0  0  0  0  0
    5.9604    4.2861   -0.0892 C   0  0  0  0  0  0  0  0  0  0  0  0
    6.0537    5.4818   -0.9813 C   0  0  0  0  0  0  0  0  0  0  0  0
    7.4881    5.3471   -1.3827 C   0  0  0  0  0  0  0  0  0  0  0  0
    8.4127    5.8875   -0.3323 C   0  0  0  0  0  0  0  0  0  0  0  0
    9.6452    5.0712   -0.4952 C   0  0  0  0  0  0  0  0  0  0  0  0
   10.1598    4.4176    0.4090 O   0  0  0  0  0  0  0  0  0  0  0  0
   10.1425    5.0861   -1.8826 C   0  0  0  0  0  0  0  0  0  0  0  0
    9.9090    4.0456   -2.7661 C   0  0  0  0  0  0  0  0  0  0  0  0
   10.7603    4.0665   -4.0023 N   0  0  0  0  0  0  0  0  0  0  0  0
   12.0660    4.9080   -4.2376 C   0  0  0  0  0  0  0  0  0  0  0  0
   12.1313    6.0611   -5.3105 C   0  0  0  0  0  0  0  0  0  0  0  0
   11.8590    7.5225   -4.9151 C   0  0  0  0  0  0  0  0  0  0  0  0
   10.3732    7.8075   -4.8378 C   0  0  0  0  0  0  0  0  0  0  0  0
   10.0783    8.6117   -3.5806 C   0  0  0  0  0  0  0  0  0  0  0  0
    9.7656    7.6490   -2.4745 C   0  0  0  0  0  0  0  0  0  0  0  0
   10.7400    6.4857   -2.1424 C   0  0  0  0  0  0  0  0  0  0  0  0
   11.9017    6.7504   -1.8253 O   0  0  0  0  0  0  0  0  0  0  0  0
    8.9512    2.6361   -2.3554 C   0  0  0  0  0  0  0  0  0  0  0  0
    7.7258    1.8788   -2.1204 C   0  0  0  0  0  0  0  0  0  0  0  0
    4.7209   -0.2769   -1.6813 H   0  0  0  0  0  0  0  0  0  0  0  0
    6.2901   -0.3737   -0.9802 H   0  0  0  0  0  0  0  0  0  0  0  0
    6.0526   -0.6332   -2.7448 H   0  0  0  0  0  0  0  0  0  0  0  0
    2.8824    1.1256   -1.0718 H   0  0  0  0  0  0  0  0  0  0  0  0
    3.2052    1.1655   -2.7771 H   0  0  0  0  0  0  0  0  0  0  0  0
    2.2987    3.6308   -1.1163 H   0  0  0  0  0  0  0  0  0  0  0  0
    1.2492    2.5535   -1.9417 H   0  0  0  0  0  0  0  0  0  0  0  0
    2.4000    3.5143   -2.8789 H   0  0  0  0  0  0  0  0  0  0  0  0
    5.6539    1.8962    0.5231 H   0  0  0  0  0  0  0  0  0  0  0  0
    3.9245    1.7780    0.5153 H   0  0  0  0  0  0  0  0  0  0  0  0
    4.3942    4.0462    1.3296 H   0  0  0  0  0  0  0  0  0  0  0  0
    3.8746    4.2907   -0.3385 H   0  0  0  0  0  0  0  0  0  0  0  0
    6.3491    3.5032   -0.7284 H   0  0  0  0  0  0  0  0  0  0  0  0
    6.6539    4.2293    0.7535 H   0  0  0  0  0  0  0  0  0  0  0  0
    5.8499    6.4127   -0.4925 H   0  0  0  0  0  0  0  0  0  0  0  0
    5.4312    5.3946   -1.8815 H   0  0  0  0  0  0  0  0  0  0  0  0
    7.6542    5.5577   -2.4509 H   0  0  0  0  0  0  0  0  0  0  0  0
    7.7404    4.2772   -1.3989 H   0  0  0  0  0  0  0  0  0  0  0  0
    8.0720    5.8685    0.6806 H   0  0  0  0  0  0  0  0  0  0  0  0
    8.5568    6.9629   -0.5781 H   0  0  0  0  0  0  0  0  0  0  0  0
   11.0332    3.0917   -4.1749 H   0  0  0  0  0  0  0  0  0  0  0  0
   12.7932    4.1838   -4.6366 H   0  0  0  0  0  0  0  0  0  0  0  0
   12.5470    5.2089   -3.3053 H   0  0  0  0  0  0  0  0  0  0  0  0
   11.5485    5.8145   -6.2016 H   0  0  0  0  0  0  0  0  0  0  0  0
   13.1820    6.1109   -5.6467 H   0  0  0  0  0  0  0  0  0  0  0  0
   12.2688    8.2131   -5.6721 H   0  0  0  0  0  0  0  0  0  0  0  0
   12.4071    7.7946   -4.0039 H   0  0  0  0  0  0  0  0  0  0  0  0
    9.8031    6.8754   -4.8153 H   0  0  0  0  0  0  0  0  0  0  0  0
   10.0347    8.3534   -5.7243 H   0  0  0  0  0  0  0  0  0  0  0  0
    9.1621    9.2148   -3.7615 H   0  0  0  0  0  0  0  0  0  0  0  0
   10.8843    9.3112   -3.3242 H   0  0  0  0  0  0  0  0  0  0  0  0
    8.7864    7.2137   -2.7217 H   0  0  0  0  0  0  0  0  0  0  0  0
    9.6547    8.2478   -1.5585 H   0  0  0  0  0  0  0  0  0  0  0  0
    9.8089    1.9833   -2.0850 H   0  0  0  0  0  0  0  0  0  0  0  0
    8.0547    0.8863   -1.7510 H   0  0  0  0  0  0  0  0  0  0  0  0
  1  2  1  0  0  0  0
  1 27  1  0  0  0  0
  1 28  1  0  0  0  0
  1 29  1  0  0  0  0
  2  3  2  3  0  0  0
  2 26  1  0  0  0  0
  3  4  1  0  0  0  0
  3  6  1  0  0  0  0
  4  5  1  0  0  0  0
  4 30  1  0  0  0  0
  4 31  1  0  0  0  0
  5 32  1  0  0  0  0
  5 33  1  0  0  0  0
  5 34  1  0  0  0  0
  6  7  1  0  0  0  0
  6 35  1  0  0  0  0
  6 36  1  0  0  0  0
  7  8  1  0  0  0  0
  7 37  1  0  0  0  0
  7 38  1  0  0  0  0
  8  9  1  0  0  0  0
  8 39  1  0  0  0  0
  8 40  1  0  0  0  0
  9 10  1  0  0  0  0
  9 41  1  0  0  0  0
  9 42  1  0  0  0  0
 10 11  1  0  0  0  0
 10 43  1  0  0  0  0
 10 44  1  0  0  0  0
 11 12  1  0  0  0  0
 11 45  1  0  0  0  0
 11 46  1  0  0  0  0
 12 13  2  0  0  0  0
 12 14  1  0  0  0  0
 14 15  2  3  0  0  0
 14 23  1  0  0  0  0
 15 16  1  0  0  0  0
 15 25  1  0  0  0  0
 16 17  1  0  0  0  0
 16 47  1  0  0  0  0
 17 18  1  0  0  0  0
 17 48  1  0  0  0  0
 17 49  1  0  0  0  0
 18 19  1  0  0  0  0
 18 50  1  0  0  0  0
 18 51  1  0  0  0  0
 19 20  1  0  0  0  0
 19 52  1  0  0  0  0
 19 53  1  0  0  0  0
 20 21  1  0  0  0  0
 20 54  1  0  0  0  0
 20 55  1  0  0  0  0
 21 22  1  0  0  0  0
 21 56  1  0  0  0  0
 21 57  1  0  0  0  0
 22 23  1  0  0  0  0
 22 58  1  0  0  0  0
 22 59  1  0  0  0  0
 23 24  2  0  0  0  0
 25 26  2  3  0  0  0
 25 60  1  0  0  0  0
 26 61  1  0  0  0  0
M  END
$$$$
