
 OpenBabel04232216483D

 57 58  0  0  0  0  0  0  0  0999 V2000
    6.1457    0.2339    1.2852 C   0  0  0  0  0  0  0  0  0  0  0  0
    6.6743   -1.0719    0.6258 C   0  0  0  0  0  0  0  0  0  0  0  0
    5.5702   -1.5564   -0.0547 C   0  0  0  0  0  0  0  0  0  0  0  0
    5.2653   -2.7129   -0.8351 C   0  0  0  0  0  0  0  0  0  0  0  0
    5.1966   -3.8204   -0.0758 C   0  0  0  0  0  0  0  0  0  0  0  0
    4.0383   -4.3588    0.7390 C   0  0  0  0  0  0  0  0  0  0  0  0
    2.6224   -3.8855    0.4862 C   0  0  0  0  0  0  0  0  0  0  0  0
    6.5046   -4.1406    0.6019 C   0  0  0  0  0  0  0  0  0  0  0  0
    6.8464   -5.5860    0.6237 C   0  0  0  0  0  0  0  0  0  0  0  0
    7.5895   -5.9140   -0.5795 N   0  0  0  0  0  0  0  0  0  0  0  0
    8.8485   -6.2708   -0.1695 C   0  0  0  0  0  0  0  0  0  0  0  0
    9.0376   -7.3238    0.4306 O   0  0  0  0  0  0  0  0  0  0  0  0
    9.5779   -5.1014   -0.0600 N   0  0  0  0  0  0  0  0  0  0  0  0
   10.1419   -4.7443    1.1339 C   0  0  0  0  0  0  0  0  0  0  0  0
    9.7664   -3.5041    1.6067 C   0  0  0  0  0  0  0  0  0  0  0  0
    9.3723   -2.2553    0.7430 C   0  0  0  0  0  0  0  0  0  0  0  0
   10.8314   -1.8160    0.1722 C   0  0  0  0  0  0  0  0  0  0  0  0
   11.5029   -2.7214   -0.9142 C   0  0  0  0  0  0  0  0  0  0  0  0
   12.6973   -3.3732   -0.8721 C   0  0  0  0  0  0  0  0  0  0  0  0
   13.2523   -4.3378   -1.9661 C   0  0  0  0  0  0  0  0  0  0  0  0
   13.1910   -5.8938   -1.6901 C   0  0  0  0  0  0  0  0  0  0  0  0
   11.9458   -6.2580   -0.8986 C   0  0  0  0  0  0  0  0  0  0  0  0
   11.9456   -6.7909    0.5462 C   0  0  0  0  0  0  0  0  0  0  0  0
   11.1702   -5.8546    1.6478 C   0  0  0  0  0  0  0  0  0  0  0  0
    8.2536   -1.4061    0.5008 C   0  0  0  0  0  0  0  0  0  0  0  0
    5.2092    0.0183    1.8475 H   0  0  0  0  0  0  0  0  0  0  0  0
    5.8146    0.9444    0.5026 H   0  0  0  0  0  0  0  0  0  0  0  0
    6.7950    0.7516    1.9817 H   0  0  0  0  0  0  0  0  0  0  0  0
    4.6030   -1.0386    0.1214 H   0  0  0  0  0  0  0  0  0  0  0  0
    6.0165   -2.6870   -1.6289 H   0  0  0  0  0  0  0  0  0  0  0  0
    4.2571   -4.1974    1.8029 H   0  0  0  0  0  0  0  0  0  0  0  0
    4.0293   -5.4465    0.5889 H   0  0  0  0  0  0  0  0  0  0  0  0
    2.4396   -2.9183    0.9615 H   0  0  0  0  0  0  0  0  0  0  0  0
    1.9350   -4.6082    0.9464 H   0  0  0  0  0  0  0  0  0  0  0  0
    2.3841   -3.8252   -0.5779 H   0  0  0  0  0  0  0  0  0  0  0  0
    6.4673   -3.7139    1.6221 H   0  0  0  0  0  0  0  0  0  0  0  0
    7.2955   -3.6004    0.0726 H   0  0  0  0  0  0  0  0  0  0  0  0
    5.9900   -6.2708    0.6850 H   0  0  0  0  0  0  0  0  0  0  0  0
    7.4528   -5.7047    1.5264 H   0  0  0  0  0  0  0  0  0  0  0  0
    7.6380   -5.1505   -1.2486 H   0  0  0  0  0  0  0  0  0  0  0  0
    9.3126   -4.3411   -0.6641 H   0  0  0  0  0  0  0  0  0  0  0  0
   10.1560   -3.2059    2.5832 H   0  0  0  0  0  0  0  0  0  0  0  0
   11.5165   -1.7495    1.0309 H   0  0  0  0  0  0  0  0  0  0  0  0
   10.7658   -0.8027   -0.2379 H   0  0  0  0  0  0  0  0  0  0  0  0
   10.8877   -2.8278   -1.8304 H   0  0  0  0  0  0  0  0  0  0  0  0
   13.3166   -3.3038    0.0185 H   0  0  0  0  0  0  0  0  0  0  0  0
   14.2988   -4.0824   -2.1768 H   0  0  0  0  0  0  0  0  0  0  0  0
   12.7189   -4.1556   -2.9126 H   0  0  0  0  0  0  0  0  0  0  0  0
   14.1132   -6.2902   -1.2529 H   0  0  0  0  0  0  0  0  0  0  0  0
   13.1050   -6.3902   -2.6744 H   0  0  0  0  0  0  0  0  0  0  0  0
   11.2579   -6.8426   -1.5227 H   0  0  0  0  0  0  0  0  0  0  0  0
   11.4909   -5.3024   -0.8232 H   0  0  0  0  0  0  0  0  0  0  0  0
   12.9546   -7.0634    0.8850 H   0  0  0  0  0  0  0  0  0  0  0  0
   11.4247   -7.7645    0.5164 H   0  0  0  0  0  0  0  0  0  0  0  0
   11.9682   -5.3807    2.2362 H   0  0  0  0  0  0  0  0  0  0  0  0
   10.6572   -6.5475    2.3309 H   0  0  0  0  0  0  0  0  0  0  0  0
    8.5746   -0.5065   -0.0423 H   0  0  0  0  0  0  0  0  0  0  0  0
  1  2  1  0  0  0  0
  1 26  1  0  0  0  0
  1 27  1  0  0  0  0
  1 28  1  0  0  0  0
  2  3  2  3  0  0  0
  2 25  1  0  0  0  0
  3  4  1  0  0  0  0
  3 29  1  0  0  0  0
  4  5  2  3  0  0  0
  4 30  1  0  0  0  0
  5  6  1  0  0  0  0
  5  8  1  0  0  0  0
  6  7  1  0  0  0  0
  6 31  1  0  0  0  0
  6 32  1  0  0  0  0
  7 33  1  0  0  0  0
  7 34  1  0  0  0  0
  7 35  1  0  0  0  0
  8  9  1  0  0  0  0
  8 36  1  0  0  0  0
  8 37  1  0  0  0  0
  9 10  1  0  0  0  0
  9 38  1  0  0  0  0
  9 39  1  0  0  0  0
 10 11  1  0  0  0  0
 10 40  1  0  0  0  0
 11 12  2  0  0  0  0
 11 13  1  0  0  0  0
 13 14  1  0  0  0  0
 13 41  1  0  0  0  0
 14 15  2  3  0  0  0
 14 24  1  0  0  0  0
 15 16  1  0  0  0  0
 15 42  1  0  0  0  0
 16 17  1  0  0  0  0
 16 25  2  3  0  0  0
 17 18  1  0  0  0  0
 17 43  1  0  0  0  0
 17 44  1  0  0  0  0
 18 19  2  3  0  0  0
 18 45  1  0  0  0  0
 19 20  1  0  0  0  0
 19 46  1  0  0  0  0
 20 21  1  0  0  0  0
 20 47  1  0  0  0  0
 20 48  1  0  0  0  0
 21 22  1  0  0  0  0
 21 49  1  0  0  0  0
 21 50  1  0  0  0  0
 22 23  1  0  0  0  0
 22 51  1  0  0  0  0
 22 52  1  0  0  0  0
 23 24  1  0  0  0  0
 23 53  1  0  0  0  0
 23 54  1  0  0  0  0
 24 55  1  0  0  0  0
 24 56  1  0  0  0  0
 25 57  1  0  0  0  0
M  END
$$$$
