
 OpenBabel04232217003D

212211  0  0  0  0  0  0  0  0999 V2000
    8.8995    0.6307    1.5287 O   0  0  0  0  0  0  0  0  0  0  0  0
    8.1414    1.1828    2.2875 C   0  0  0  0  0  0  0  0  0  0  0  0
    6.8471    1.5407    2.0262 O   0  0  0  0  0  0  0  0  0  0  0  0
    6.3846    1.2289    0.6956 C   0  0  0  0  0  0  0  0  0  0  0  0
    6.8754    2.2905   -0.2698 C   0  0  0  0  0  0  0  0  0  0  0  0
    6.3897    2.0256   -1.6883 C   0  0  0  0  0  0  0  0  0  0  0  0
    6.9063    3.0901   -2.6464 C   0  0  0  0  0  0  0  0  0  0  0  0
    8.4285    3.0979   -2.6639 C   0  0  0  0  0  0  0  0  0  0  0  0
    8.9405    4.1587   -3.6135 C   0  0  0  0  0  0  0  0  0  0  0  0
   10.4577    4.1604   -3.6163 C   0  0  0  0  0  0  0  0  0  0  0  0
   10.9687    5.2206   -4.5732 C   0  0  0  0  0  0  0  0  0  0  0  0
   12.4854    5.2245   -4.5767 C   0  0  0  0  0  0  0  0  0  0  0  0
   12.9957    6.2861   -5.5322 C   0  0  0  0  0  0  0  0  0  0  0  0
   14.5124    6.2910   -5.5339 C   0  0  0  0  0  0  0  0  0  0  0  0
   15.0224    7.3527   -6.4895 C   0  0  0  0  0  0  0  0  0  0  0  0
   16.5391    7.3563   -6.4927 C   0  0  0  0  0  0  0  0  0  0  0  0
   17.0492    8.4193   -7.4467 C   0  0  0  0  0  0  0  0  0  0  0  0
   18.5659    8.4215   -7.4514 C   0  0  0  0  0  0  0  0  0  0  0  0
   19.0759    9.4831   -8.4070 C   0  0  0  0  0  0  0  0  0  0  0  0
   20.5926    9.4840   -8.4132 C   0  0  0  0  0  0  0  0  0  0  0  0
   21.1026   10.5443   -9.3702 C   0  0  0  0  0  0  0  0  0  0  0  0
   22.6193   10.5464   -9.3749 C   0  0  0  0  0  0  0  0  0  0  0  0
   23.1293   11.6081  -10.3305 C   0  0  0  0  0  0  0  0  0  0  0  0
   24.6460   11.6117  -10.3336 C   0  0  0  0  0  0  0  0  0  0  0  0
   25.1561   12.6733  -11.2892 C   0  0  0  0  0  0  0  0  0  0  0  0
   26.6728   12.6783  -11.2909 C   0  0  0  0  0  0  0  0  0  0  0  0
   27.1829   13.7399  -12.2465 C   0  0  0  0  0  0  0  0  0  0  0  0
   28.6995   13.7448  -12.2482 C   0  0  0  0  0  0  0  0  0  0  0  0
   29.2096   14.8064  -13.2037 C   0  0  0  0  0  0  0  0  0  0  0  0
   30.7262   14.8115  -13.2055 C   0  0  0  0  0  0  0  0  0  0  0  0
   31.2365   15.8730  -14.1610 C   0  0  0  0  0  0  0  0  0  0  0  0
   32.7533   15.8781  -14.1628 C   0  0  0  0  0  0  0  0  0  0  0  0
   33.2650   16.9383  -15.1198 C   0  0  0  0  0  0  0  0  0  0  0  0
   34.7830   16.9430  -15.1213 C   0  0  0  0  0  0  0  0  0  0  0  0
   35.2970   18.0025  -16.0775 C   0  0  0  0  0  0  0  0  0  0  0  0
   36.8164   18.0146  -16.0858 C   0  0  0  0  0  0  0  0  0  0  0  0
   37.3112   19.0788  -17.0437 C   0  0  0  0  0  0  0  0  0  0  0  0
   38.7325   19.0817  -17.0461 O   0  0  0  0  0  0  0  0  0  0  0  0
   39.2135   20.0753  -17.9430 C   0  0  0  0  0  0  0  0  0  0  0  0
   40.7230   20.0554  -17.9228 C   0  0  0  0  0  0  0  0  0  0  0  0
   41.2069   21.0417  -18.8221 O   0  0  0  0  0  0  0  0  0  0  0  0
   42.6315   21.0514  -18.8217 C   0  0  0  0  0  0  0  0  0  0  0  0
   43.1288   22.1130  -19.7831 C   0  0  0  0  0  0  0  0  0  0  0  0
   42.6220   23.4879  -19.3597 C   0  0  0  0  0  0  0  0  0  0  0  0
   43.1217   24.5480  -20.3201 C   0  0  0  0  0  0  0  0  0  0  0  0
   42.6368   25.8164  -19.9035 O   0  0  0  0  0  0  0  0  0  0  0  0
   43.0974   26.8273  -20.7956 C   0  0  0  0  0  0  0  0  0  0  0  0
   42.5735   28.1656  -20.3322 C   0  0  0  0  0  0  0  0  0  0  0  0
   43.0385   29.1706  -21.2197 O   0  0  0  0  0  0  0  0  0  0  0  0
   42.5567   30.4486  -20.8121 C   0  0  0  0  0  0  0  0  0  0  0  0
   43.0581   31.5080  -21.7730 C   0  0  0  0  0  0  0  0  0  0  0  0
   42.5612   31.2163  -23.1848 C   0  0  0  0  0  0  0  0  0  0  0  0
   43.0593   32.2781  -24.1416 C   0  0  0  0  0  0  0  0  0  0  0  0
   42.5815   31.9867  -25.4485 O   0  0  0  0  0  0  0  0  0  0  0  0
   43.0453   32.9789  -26.3624 C   0  0  0  0  0  0  0  0  0  0  0  0
   42.5278   32.6587  -27.7474 C   0  0  0  0  0  0  0  0  0  0  0  0
   42.9821   33.6494  -28.6636 O   0  0  0  0  0  0  0  0  0  0  0  0
   42.5051   33.3591  -29.9725 C   0  0  0  0  0  0  0  0  0  0  0  0
   43.0065   34.4214  -30.9298 C   0  0  0  0  0  0  0  0  0  0  0  0
   44.5319   34.4404  -30.9426 C   0  0  0  0  0  0  0  0  0  0  0  0
   45.0306   35.5008  -31.9009 C   0  0  0  0  0  0  0  0  0  0  0  0
   46.4525   35.5027  -31.9010 O   0  0  0  0  0  0  0  0  0  0  0  0
   46.9344   36.4952  -32.7974 C   0  0  0  0  0  0  0  0  0  0  0  0
   48.4456   36.4748  -32.7781 C   0  0  0  0  0  0  0  0  0  0  0  0
   48.9340   37.4615  -33.6765 O   0  0  0  0  0  0  0  0  0  0  0  0
   50.3600   37.4678  -33.6766 C   0  0  0  0  0  0  0  0  0  0  0  0
   50.8575   38.5303  -34.6362 C   0  0  0  0  0  0  0  0  0  0  0  0
   50.3525   39.9047  -34.2085 C   0  0  0  0  0  0  0  0  0  0  0  0
   50.8541   40.9660  -35.1653 C   0  0  0  0  0  0  0  0  0  0  0  0
   50.3730   42.2374  -34.7479 O   0  0  0  0  0  0  0  0  0  0  0  0
   50.8362   43.2470  -35.6376 C   0  0  0  0  0  0  0  0  0  0  0  0
   50.3132   44.5867  -35.1730 C   0  0  0  0  0  0  0  0  0  0  0  0
   50.7783   45.5918  -36.0649 O   0  0  0  0  0  0  0  0  0  0  0  0
   50.3025   46.8706  -35.6566 C   0  0  0  0  0  0  0  0  0  0  0  0
   50.8104   47.9242  -36.6196 C   0  0  0  0  0  0  0  0  0  0  0  0
   50.3267   49.1932  -36.2089 O   0  0  0  0  0  0  0  0  0  0  0  0
   50.7955   50.2057  -37.0878 C   0  0  0  0  0  0  0  0  0  0  0  0
   50.3212   51.4822  -36.6791 O   0  0  0  0  0  0  0  0  0  0  0  0
   50.7911   51.7767  -35.3661 C   0  0  0  0  0  0  0  0  0  0  0  0
   50.2761   53.1342  -34.9479 C   0  0  0  0  0  0  0  0  0  0  0  0
    8.4098    1.4780    3.3189 H   0  0  0  0  0  0  0  0  0  0  0  0
    5.2874    1.2202    0.7120 H   0  0  0  0  0  0  0  0  0  0  0  0
    6.7270    0.2299    0.3855 H   0  0  0  0  0  0  0  0  0  0  0  0
    7.9678    2.3075   -0.2334 H   0  0  0  0  0  0  0  0  0  0  0  0
    6.5530    3.2811    0.0655 H   0  0  0  0  0  0  0  0  0  0  0  0
    5.2949    2.0169   -1.7077 H   0  0  0  0  0  0  0  0  0  0  0  0
    6.7329    1.0382   -2.0207 H   0  0  0  0  0  0  0  0  0  0  0  0
    6.5341    4.0770   -2.3446 H   0  0  0  0  0  0  0  0  0  0  0  0
    6.5285    2.8954   -3.6566 H   0  0  0  0  0  0  0  0  0  0  0  0
    8.8022    2.1103   -2.9594 H   0  0  0  0  0  0  0  0  0  0  0  0
    8.8207    3.3039   -1.6629 H   0  0  0  0  0  0  0  0  0  0  0  0
    8.5670    5.1438   -3.3092 H   0  0  0  0  0  0  0  0  0  0  0  0
    8.5645    3.9628   -4.6232 H   0  0  0  0  0  0  0  0  0  0  0  0
   10.8327    3.1744   -3.9172 H   0  0  0  0  0  0  0  0  0  0  0  0
   10.8350    4.3575   -2.6051 H   0  0  0  0  0  0  0  0  0  0  0  0
   10.5935    6.2069   -4.2734 H   0  0  0  0  0  0  0  0  0  0  0  0
   10.5936    5.0231   -5.5850 H   0  0  0  0  0  0  0  0  0  0  0  0
   12.8611    4.2390   -4.8782 H   0  0  0  0  0  0  0  0  0  0  0  0
   12.8611    5.4210   -3.5650 H   0  0  0  0  0  0  0  0  0  0  0  0
   12.6192    7.2716   -5.2318 H   0  0  0  0  0  0  0  0  0  0  0  0
   12.6215    6.0891   -6.5444 H   0  0  0  0  0  0  0  0  0  0  0  0
   14.8891    5.3055   -5.8343 H   0  0  0  0  0  0  0  0  0  0  0  0
   14.8868    6.4881   -4.5218 H   0  0  0  0  0  0  0  0  0  0  0  0
   14.6468    8.3384   -6.1883 H   0  0  0  0  0  0  0  0  0  0  0  0
   14.6469    7.1566   -7.5013 H   0  0  0  0  0  0  0  0  0  0  0  0
   16.9148    6.3710   -6.7950 H   0  0  0  0  0  0  0  0  0  0  0  0
   16.9148    7.5508   -5.4806 H   0  0  0  0  0  0  0  0  0  0  0  0
   16.6747    9.4048   -7.1436 H   0  0  0  0  0  0  0  0  0  0  0  0
   16.6724    8.2256   -8.4586 H   0  0  0  0  0  0  0  0  0  0  0  0
   18.9405    7.4356   -7.7532 H   0  0  0  0  0  0  0  0  0  0  0  0
   18.9428    8.6166   -6.4399 H   0  0  0  0  0  0  0  0  0  0  0  0
   18.7026   10.4693   -8.1044 H   0  0  0  0  0  0  0  0  0  0  0  0
   18.6979    9.2889   -9.4183 H   0  0  0  0  0  0  0  0  0  0  0  0
   20.9660    8.4975   -8.7144 H   0  0  0  0  0  0  0  0  0  0  0  0
   20.9706    9.6796   -7.4021 H   0  0  0  0  0  0  0  0  0  0  0  0
   20.7281   11.5306   -9.0698 H   0  0  0  0  0  0  0  0  0  0  0  0
   20.7257   10.3478  -10.3815 H   0  0  0  0  0  0  0  0  0  0  0  0
   22.9938    9.5605   -9.6766 H   0  0  0  0  0  0  0  0  0  0  0  0
   22.9962   10.7415   -8.3633 H   0  0  0  0  0  0  0  0  0  0  0  0
   22.7536   12.5938  -10.0295 H   0  0  0  0  0  0  0  0  0  0  0  0
   22.7536   11.4122  -11.3423 H   0  0  0  0  0  0  0  0  0  0  0  0
   25.0217   10.6259  -10.6345 H   0  0  0  0  0  0  0  0  0  0  0  0
   25.0217   11.8075   -9.3217 H   0  0  0  0  0  0  0  0  0  0  0  0
   24.7792   13.6588  -10.9891 H   0  0  0  0  0  0  0  0  0  0  0  0
   24.7815   12.4766  -12.3013 H   0  0  0  0  0  0  0  0  0  0  0  0
   27.0496   11.6927  -11.5911 H   0  0  0  0  0  0  0  0  0  0  0  0
   27.0473   12.8751  -10.2788 H   0  0  0  0  0  0  0  0  0  0  0  0
   26.8061   14.7254  -11.9461 H   0  0  0  0  0  0  0  0  0  0  0  0
   26.8085   13.5429  -13.2586 H   0  0  0  0  0  0  0  0  0  0  0  0
   29.0762   12.7593  -12.5485 H   0  0  0  0  0  0  0  0  0  0  0  0
   29.0738   13.9418  -11.2360 H   0  0  0  0  0  0  0  0  0  0  0  0
   28.8328   15.7918  -12.9031 H   0  0  0  0  0  0  0  0  0  0  0  0
   28.8352   14.6092  -14.2157 H   0  0  0  0  0  0  0  0  0  0  0  0
   31.1027   13.8259  -13.5059 H   0  0  0  0  0  0  0  0  0  0  0  0
   31.1003   15.0085  -12.1933 H   0  0  0  0  0  0  0  0  0  0  0  0
   30.8597   16.8584  -13.8603 H   0  0  0  0  0  0  0  0  0  0  0  0
   30.8620   15.6757  -15.1730 H   0  0  0  0  0  0  0  0  0  0  0  0
   33.1295   14.8920  -14.4617 H   0  0  0  0  0  0  0  0  0  0  0  0
   33.1271   16.0764  -13.1508 H   0  0  0  0  0  0  0  0  0  0  0  0
   32.8875   17.9240  -14.8206 H   0  0  0  0  0  0  0  0  0  0  0  0
   32.8899   16.7397  -16.1314 H   0  0  0  0  0  0  0  0  0  0  0  0
   35.1580   15.9567  -15.4203 H   0  0  0  0  0  0  0  0  0  0  0  0
   35.1556   17.1415  -14.1090 H   0  0  0  0  0  0  0  0  0  0  0  0
   34.9170   18.9876  -15.7788 H   0  0  0  0  0  0  0  0  0  0  0  0
   34.9194   17.8042  -17.0886 H   0  0  0  0  0  0  0  0  0  0  0  0
   37.2066   17.0330  -16.3815 H   0  0  0  0  0  0  0  0  0  0  0  0
   37.2044   18.2075  -15.0780 H   0  0  0  0  0  0  0  0  0  0  0  0
   36.9460   20.0630  -16.7284 H   0  0  0  0  0  0  0  0  0  0  0  0
   36.9460   18.8684  -18.0555 H   0  0  0  0  0  0  0  0  0  0  0  0
   38.8456   21.0629  -17.6406 H   0  0  0  0  0  0  0  0  0  0  0  0
   38.8479   19.8735  -18.9568 H   0  0  0  0  0  0  0  0  0  0  0  0
   41.0902   19.0684  -18.2243 H   0  0  0  0  0  0  0  0  0  0  0  0
   41.0880   20.2598  -16.9101 H   0  0  0  0  0  0  0  0  0  0  0  0
   42.9978   20.0692  -19.1342 H   0  0  0  0  0  0  0  0  0  0  0  0
   42.9922   21.2672  -17.8097 H   0  0  0  0  0  0  0  0  0  0  0  0
   42.7839   21.8860  -20.7994 H   0  0  0  0  0  0  0  0  0  0  0  0
   44.2246   22.1048  -19.8084 H   0  0  0  0  0  0  0  0  0  0  0  0
   42.9552   23.7207  -18.3398 H   0  0  0  0  0  0  0  0  0  0  0  0
   41.5249   23.5042  -19.3277 H   0  0  0  0  0  0  0  0  0  0  0  0
   42.7579   24.3336  -21.3309 H   0  0  0  0  0  0  0  0  0  0  0  0
   44.2170   24.5591  -20.3239 H   0  0  0  0  0  0  0  0  0  0  0  0
   42.7446   26.6169  -21.8124 H   0  0  0  0  0  0  0  0  0  0  0  0
   44.1938   26.8389  -20.8144 H   0  0  0  0  0  0  0  0  0  0  0  0
   42.9264   28.3767  -19.3171 H   0  0  0  0  0  0  0  0  0  0  0  0
   41.4780   28.1559  -20.3178 H   0  0  0  0  0  0  0  0  0  0  0  0
   42.9186   30.6639  -19.8027 H   0  0  0  0  0  0  0  0  0  0  0  0
   41.4610   30.4378  -20.8094 H   0  0  0  0  0  0  0  0  0  0  0  0
   44.1547   31.5327  -21.7618 H   0  0  0  0  0  0  0  0  0  0  0  0
   42.7130   32.4960  -21.4467 H   0  0  0  0  0  0  0  0  0  0  0  0
   41.4641   31.1807  -23.2054 H   0  0  0  0  0  0  0  0  0  0  0  0
   42.9004   30.2278  -23.5201 H   0  0  0  0  0  0  0  0  0  0  0  0
   44.1548   32.2881  -24.1491 H   0  0  0  0  0  0  0  0  0  0  0  0
   42.6914   33.2621  -23.8309 H   0  0  0  0  0  0  0  0  0  0  0  0
   44.1415   32.9983  -26.3686 H   0  0  0  0  0  0  0  0  0  0  0  0
   42.6906   33.9687  -26.0515 H   0  0  0  0  0  0  0  0  0  0  0  0
   41.4325   32.6377  -27.7415 H   0  0  0  0  0  0  0  0  0  0  0  0
   42.8837   31.6703  -28.0596 H   0  0  0  0  0  0  0  0  0  0  0  0
   41.4116   33.3532  -29.9650 H   0  0  0  0  0  0  0  0  0  0  0  0
   42.8720   32.3742  -30.2826 H   0  0  0  0  0  0  0  0  0  0  0  0
   42.6244   35.4045  -30.6283 H   0  0  0  0  0  0  0  0  0  0  0  0
   42.6210   34.2236  -31.9364 H   0  0  0  0  0  0  0  0  0  0  0  0
   44.9240   33.4576  -31.2353 H   0  0  0  0  0  0  0  0  0  0  0  0
   44.9266   34.6348  -29.9370 H   0  0  0  0  0  0  0  0  0  0  0  0
   44.6665   36.4854  -31.5874 H   0  0  0  0  0  0  0  0  0  0  0  0
   44.6678   35.2877  -32.9123 H   0  0  0  0  0  0  0  0  0  0  0  0
   46.5687   37.4838  -32.4957 H   0  0  0  0  0  0  0  0  0  0  0  0
   46.5701   36.2940  -33.8119 H   0  0  0  0  0  0  0  0  0  0  0  0
   48.8123   35.4879  -33.0805 H   0  0  0  0  0  0  0  0  0  0  0  0
   48.8113   36.6774  -31.7652 H   0  0  0  0  0  0  0  0  0  0  0  0
   50.7229   36.4852  -33.9910 H   0  0  0  0  0  0  0  0  0  0  0  0
   50.7205   37.6813  -32.6641 H   0  0  0  0  0  0  0  0  0  0  0  0
   50.5112   38.3059  -35.6526 H   0  0  0  0  0  0  0  0  0  0  0  0
   51.9532   38.5202  -34.6626 H   0  0  0  0  0  0  0  0  0  0  0  0
   50.6862   40.1340  -33.1880 H   0  0  0  0  0  0  0  0  0  0  0  0
   49.2555   39.9227  -34.1771 H   0  0  0  0  0  0  0  0  0  0  0  0
   50.4909   40.7548  -36.1771 H   0  0  0  0  0  0  0  0  0  0  0  0
   51.9495   40.9747  -35.1694 H   0  0  0  0  0  0  0  0  0  0  0  0
   50.4846   43.0387  -36.6551 H   0  0  0  0  0  0  0  0  0  0  0  0
   51.9326   43.2571  -35.6548 H   0  0  0  0  0  0  0  0  0  0  0  0
   50.6664   44.7953  -34.1566 H   0  0  0  0  0  0  0  0  0  0  0  0
   49.2173   44.5768  -35.1577 H   0  0  0  0  0  0  0  0  0  0  0  0
   50.6535   47.0930  -34.6418 H   0  0  0  0  0  0  0  0  0  0  0  0
   49.2062   46.8754  -35.6442 H   0  0  0  0  0  0  0  0  0  0  0  0
   50.4601   47.7054  -37.6336 H   0  0  0  0  0  0  0  0  0  0  0  0
   51.9061   47.9235  -36.6310 H   0  0  0  0  0  0  0  0  0  0  0  0
   50.4260   50.0042  -38.0989 H   0  0  0  0  0  0  0  0  0  0  0  0
   51.8923   50.2148  -37.0956 H   0  0  0  0  0  0  0  0  0  0  0  0
   51.8869   51.7760  -35.3602 H   0  0  0  0  0  0  0  0  0  0  0  0
   50.4293   51.0176  -34.6634 H   0  0  0  0  0  0  0  0  0  0  0  0
   50.6202   53.9065  -35.6423 H   0  0  0  0  0  0  0  0  0  0  0  0
   50.6249   53.3793  -33.9412 H   0  0  0  0  0  0  0  0  0  0  0  0
   49.1818   53.1516  -34.9597 H   0  0  0  0  0  0  0  0  0  0  0  0
  1  2  2  0  0  0  0
  2  3  1  0  0  0  0
  2 81  1  0  0  0  0
  3  4  1  0  0  0  0
  4  5  1  0  0  0  0
  4 82  1  0  0  0  0
  4 83  1  0  0  0  0
  5  6  1  0  0  0  0
  5 84  1  0  0  0  0
  5 85  1  0  0  0  0
  6  7  1  0  0  0  0
  6 86  1  0  0  0  0
  6 87  1  0  0  0  0
  7  8  1  0  0  0  0
  7 88  1  0  0  0  0
  7 89  1  0  0  0  0
  8  9  1  0  0  0  0
  8 90  1  0  0  0  0
  8 91  1  0  0  0  0
  9 10  1  0  0  0  0
  9 92  1  0  0  0  0
  9 93  1  0  0  0  0
 10 11  1  0  0  0  0
 10 94  1  0  0  0  0
 10 95  1  0  0  0  0
 11 12  1  0  0  0  0
 11 96  1  0  0  0  0
 11 97  1  0  0  0  0
 12 13  1  0  0  0  0
 12 98  1  0  0  0  0
 12 99  1  0  0  0  0
 13 14  1  0  0  0  0
 13100  1  0  0  0  0
 13101  1  0  0  0  0
 14 15  1  0  0  0  0
 14102  1  0  0  0  0
 14103  1  0  0  0  0
 15 16  1  0  0  0  0
 15104  1  0  0  0  0
 15105  1  0  0  0  0
 16 17  1  0  0  0  0
 16106  1  0  0  0  0
 16107  1  0  0  0  0
 17 18  1  0  0  0  0
 17108  1  0  0  0  0
 17109  1  0  0  0  0
 18 19  1  0  0  0  0
 18110  1  0  0  0  0
 18111  1  0  0  0  0
 19 20  1  0  0  0  0
 19112  1  0  0  0  0
 19113  1  0  0  0  0
 20 21  1  0  0  0  0
 20114  1  0  0  0  0
 20115  1  0  0  0  0
 21 22  1  0  0  0  0
 21116  1  0  0  0  0
 21117  1  0  0  0  0
 22 23  1  0  0  0  0
 22118  1  0  0  0  0
 22119  1  0  0  0  0
 23 24  1  0  0  0  0
 23120  1  0  0  0  0
 23121  1  0  0  0  0
 24 25  1  0  0  0  0
 24122  1  0  0  0  0
 24123  1  0  0  0  0
 25 26  1  0  0  0  0
 25124  1  0  0  0  0
 25125  1  0  0  0  0
 26 27  1  0  0  0  0
 26126  1  0  0  0  0
 26127  1  0  0  0  0
 27 28  1  0  0  0  0
 27128  1  0  0  0  0
 27129  1  0  0  0  0
 28 29  1  0  0  0  0
 28130  1  0  0  0  0
 28131  1  0  0  0  0
 29 30  1  0  0  0  0
 29132  1  0  0  0  0
 29133  1  0  0  0  0
 30 31  1  0  0  0  0
 30134  1  0  0  0  0
 30135  1  0  0  0  0
 31 32  1  0  0  0  0
 31136  1  0  0  0  0
 31137  1  0  0  0  0
 32 33  1  0  0  0  0
 32138  1  0  0  0  0
 32139  1  0  0  0  0
 33 34  1  0  0  0  0
 33140  1  0  0  0  0
 33141  1  0  0  0  0
 34 35  1  0  0  0  0
 34142  1  0  0  0  0
 34143  1  0  0  0  0
 35 36  1  0  0  0  0
 35144  1  0  0  0  0
 35145  1  0  0  0  0
 36 37  1  0  0  0  0
 36146  1  0  0  0  0
 36147  1  0  0  0  0
 37 38  1  0  0  0  0
 37148  1  0  0  0  0
 37149  1  0  0  0  0
 38 39  1  0  0  0  0
 39 40  1  0  0  0  0
 39150  1  0  0  0  0
 39151  1  0  0  0  0
 40 41  1  0  0  0  0
 40152  1  0  0  0  0
 40153  1  0  0  0  0
 41 42  1  0  0  0  0
 42 43  1  0  0  0  0
 42154  1  0  0  0  0
 42155  1  0  0  0  0
 43 44  1  0  0  0  0
 43156  1  0  0  0  0
 43157  1  0  0  0  0
 44 45  1  0  0  0  0
 44158  1  0  0  0  0
 44159  1  0  0  0  0
 45 46  1  0  0  0  0
 45160  1  0  0  0  0
 45161  1  0  0  0  0
 46 47  1  0  0  0  0
 47 48  1  0  0  0  0
 47162  1  0  0  0  0
 47163  1  0  0  0  0
 48 49  1  0  0  0  0
 48164  1  0  0  0  0
 48165  1  0  0  0  0
 49 50  1  0  0  0  0
 50 51  1  0  0  0  0
 50166  1  0  0  0  0
 50167  1  0  0  0  0
 51 52  1  0  0  0  0
 51168  1  0  0  0  0
 51169  1  0  0  0  0
 52 53  1  0  0  0  0
 52170  1  0  0  0  0
 52171  1  0  0  0  0
 53 54  1  0  0  0  0
 53172  1  0  0  0  0
 53173  1  0  0  0  0
 54 55  1  0  0  0  0
 55 56  1  0  0  0  0
 55174  1  0  0  0  0
 55175  1  0  0  0  0
 56 57  1  0  0  0  0
 56176  1  0  0  0  0
 56177  1  0  0  0  0
 57 58  1  0  0  0  0
 58 59  1  0  0  0  0
 58178  1  0  0  0  0
 58179  1  0  0  0  0
 59 60  1  0  0  0  0
 59180  1  0  0  0  0
 59181  1  0  0  0  0
 60 61  1  0  0  0  0
 60182  1  0  0  0  0
 60183  1  0  0  0  0
 61 62  1  0  0  0  0
 61184  1  0  0  0  0
 61185  1  0  0  0  0
 62 63  1  0  0  0  0
 63 64  1  0  0  0  0
 63186  1  0  0  0  0
 63187  1  0  0  0  0
 64 65  1  0  0  0  0
 64188  1  0  0  0  0
 64189  1  0  0  0  0
 65 66  1  0  0  0  0
 66 67  1  0  0  0  0
 66190  1  0  0  0  0
 66191  1  0  0  0  0
 67 68  1  0  0  0  0
 67192  1  0  0  0  0
 67193  1  0  0  0  0
 68 69  1  0  0  0  0
 68194  1  0  0  0  0
 68195  1  0  0  0  0
 69 70  1  0  0  0  0
 69196  1  0  0  0  0
 69197  1  0  0  0  0
 70 71  1  0  0  0  0
 71 72  1  0  0  0  0
 71198  1  0  0  0  0
 71199  1  0  0  0  0
 72 73  1  0  0  0  0
 72200  1  0  0  0  0
 72201  1  0  0  0  0
 73 74  1  0  0  0  0
 74 75  1  0  0  0  0
 74202  1  0  0  0  0
 74203  1  0  0  0  0
 75 76  1  0  0  0  0
 75204  1  0  0  0  0
 75205  1  0  0  0  0
 76 77  1  0  0  0  0
 77 78  1  0  0  0  0
 77206  1  0  0  0  0
 77207  1  0  0  0  0
 78 79  1  0  0  0  0
 79 80  1  0  0  0  0
 79208  1  0  0  0  0
 79209  1  0  0  0  0
 80210  1  0  0  0  0
 80211  1  0  0  0  0
 80212  1  0  0  0  0
M  END
$$$$
