
 OpenBabel04232216433D

178177  0  0  1  0  0  0  0  0999 V2000
   25.6540    9.0423   16.3162 C   0  0  0  0  0  0  0  0  0  0  0  0
   25.1476    8.8866   14.8921 C   0  0  3  0  0  0  0  0  0  0  0  0
   23.6233    8.9586   14.8765 C   0  0  0  0  0  0  0  0  0  0  0  0
   23.0264    7.8589   15.7163 C   0  0  0  0  0  0  0  0  0  0  0  0
   25.7338    9.9898   14.0215 C   0  0  0  0  0  0  0  0  0  0  0  0
   25.2483    9.8561   12.5861 C   0  0  0  0  0  0  0  0  0  0  0  0
   25.8308   10.9528   11.7257 C   0  0  0  0  0  0  0  0  0  0  0  0
   25.3497   10.8038   10.3571 N   0  0  0  0  0  0  0  0  0  0  0  0
   25.9191   11.8642    9.5341 C   0  0  0  0  0  0  0  0  0  0  0  0
   25.4279   11.7207    8.1069 C   0  0  0  0  0  0  0  0  0  0  0  0
   26.0177   12.8194    7.2396 C   0  0  0  0  0  0  0  0  0  0  0  0
   25.5295   12.6770    5.8114 C   0  0  0  0  0  0  0  0  0  0  0  0
   26.1200   13.7724    4.9467 C   0  0  0  0  0  0  0  0  0  0  0  0
   25.6326   13.6273    3.5196 C   0  0  0  0  0  0  0  0  0  0  0  0
   26.2215   14.7237    2.6557 C   0  0  0  0  0  0  0  0  0  0  0  0
   25.7341   14.5785    1.2284 C   0  0  0  0  0  0  0  0  0  0  0  0
   26.3240   15.6734    0.3629 C   0  0  0  0  0  0  0  0  0  0  0  0
   25.8372   15.5274   -1.0659 C   0  0  0  0  0  0  0  0  0  0  0  0
   26.4264   16.6253   -1.9211 C   0  0  0  0  0  0  0  0  0  0  0  0
   25.9373   16.4600   -3.2898 N   0  0  0  0  0  0  0  0  0  0  0  0
   26.4909   17.5004   -4.0726 N   0  0  0  0  0  0  0  0  0  0  0  0
   26.0304   17.3732   -5.4279 N   0  0  0  0  0  0  0  0  0  0  0  0
   26.5814   18.4221   -6.2214 N   0  0  0  0  0  0  0  0  0  0  0  0
   28.0313   18.3375   -6.2671 N   0  0  0  0  0  0  0  0  0  0  0  0
   28.4540   17.0656   -6.7472 N   0  0  0  0  0  0  0  0  0  0  0  0
   27.9815   16.9108   -8.0710 N   0  0  0  0  0  0  0  0  0  0  0  0
   28.5062   17.9694   -8.8904 N   0  0  0  0  0  0  0  0  0  0  0  0
   29.9339   17.9296   -8.8566 N   0  0  0  0  0  0  0  0  0  0  0  0
   30.3813   16.6661   -9.3659 N   0  0  0  0  0  0  0  0  0  0  0  0
   29.9135   16.4891  -10.7174 N   0  0  0  0  0  0  0  0  0  0  0  0
   30.3957   17.5303  -11.5457 N   0  0  0  0  0  0  0  0  0  0  0  0
   31.8220   17.5279  -11.5299 N   0  0  0  0  0  0  0  0  0  0  0  0
   32.2814   16.2495  -12.0062 N   0  0  0  0  0  0  0  0  0  0  0  0
   31.8051   16.0402  -13.3329 N   0  0  0  0  0  0  0  0  0  0  0  0
   32.2722   17.0815  -14.2056 N   0  0  0  0  0  0  0  0  0  0  0  0
   33.7231   17.0930  -14.2073 N   0  0  0  0  0  0  0  0  0  0  0  0
   34.2155   15.8230  -14.6832 N   0  0  0  0  0  0  0  0  0  0  0  0
   33.7149   15.5783  -15.9940 N   0  0  0  0  0  0  0  0  0  0  0  0
   34.1603   16.6358  -16.8416 N   0  0  0  0  0  0  0  0  0  0  0  0
   35.6180   16.6581  -16.8675 N   0  0  0  0  0  0  0  0  0  0  0  0
   36.1218   15.3942  -17.2930 N   0  0  0  0  0  0  0  0  0  0  0  0
   35.6304   15.1480  -18.6041 N   0  0  0  0  0  0  0  0  0  0  0  0
   36.0779   16.2030  -19.4932 N   0  0  0  0  0  0  0  0  0  0  0  0
   37.5068   16.2616  -19.4858 N   0  0  0  0  0  0  0  0  0  0  0  0
   38.0507   15.0143  -19.9580 N   0  0  0  0  0  0  0  0  0  0  0  0
   37.5816   14.7220  -21.2795 N   0  0  0  0  0  0  0  0  0  0  0  0
   37.9747   15.7659  -22.1576 N   0  0  0  0  0  0  0  0  0  0  0  0
   39.4177   15.8737  -22.1535 N   0  0  0  0  0  0  0  0  0  0  0  0
   39.9784   14.6170  -22.5821 N   0  0  0  0  0  0  0  0  0  0  0  0
   39.5238   14.3009  -23.9122 N   0  0  0  0  0  0  0  0  0  0  0  0
   39.8829   15.3335  -24.8149 N   0  0  0  0  0  0  0  0  0  0  0  0
   41.3138   15.4625  -24.8189 N   0  0  0  0  0  0  0  0  0  0  0  0
   41.8981   14.2087  -25.2144 N   0  0  0  0  0  0  0  0  0  0  0  0
   41.4159   13.8736  -26.5111 N   0  0  0  0  0  0  0  0  0  0  0  0
   41.8006   14.9011  -27.4393 N   0  0  0  0  0  0  0  0  0  0  0  0
   43.2233   15.0539  -27.4425 N   0  0  0  0  0  0  0  0  0  0  0  0
   43.8355   13.8236  -27.8372 N   0  0  0  0  0  0  0  0  0  0  0  0
   43.3913   13.4465  -29.1420 N   0  0  0  0  0  0  0  0  0  0  0  0
   43.7322   14.4657  -30.0982 N   0  0  0  0  0  0  0  0  0  0  0  0
   45.1354   14.6498  -30.1107 N   0  0  0  0  0  0  0  0  0  0  0  0
   45.7934   13.4340  -30.4942 N   0  0  0  0  0  0  0  0  0  0  0  0
   45.3117   13.0095  -31.7559 N   0  0  0  0  0  0  0  0  0  0  0  0
   45.6357   14.0257  -32.7343 N   0  0  0  0  0  0  0  0  0  0  0  0
   47.0532   14.2647  -32.7344 N   0  0  0  0  0  0  0  0  0  0  0  0
   47.7295   13.0399  -33.1012 N   0  0  0  0  0  0  0  0  0  0  0  0
   47.2760   12.5968  -34.3829 N   0  0  0  0  0  0  0  0  0  0  0  0
   47.5801   13.5903  -35.3739 N   0  0  0  0  0  0  0  0  0  0  0  0
   48.9672   13.8555  -35.3892 N   0  0  0  0  0  0  0  0  0  0  0  0
   49.6730   12.6670  -35.7380 N   0  0  0  0  0  0  0  0  0  0  0  0
   49.2088   12.1864  -36.9751 N   0  0  0  0  0  0  0  0  0  0  0  0
   49.4783   13.1679  -37.9840 N   0  0  0  0  0  0  0  0  0  0  0  0
   50.8814   13.4533  -38.0084 N   0  0  0  0  0  0  0  0  0  0  0  0
   51.6072   12.2514  -38.3261 N   0  0  0  0  0  0  0  0  0  0  0  0
   51.1800   11.7465  -39.6001 N   0  0  0  0  0  0  0  0  0  0  0  0
   51.4253   12.7408  -40.6197 N   0  0  0  0  0  0  0  0  0  0  0  0
   52.8337   13.0507  -40.6485 N   0  0  0  0  0  0  0  0  0  0  0  0
   53.6027   11.8654  -40.9603 N   0  0  0  0  0  0  0  0  0  0  0  0
   53.1779   11.3405  -42.2249 N   0  0  0  0  0  0  0  0  0  0  0  0
   53.3906   12.3161  -43.2849 N   0  0  0  0  0  0  0  0  0  0  0  0
   25.2650    8.2484   16.9562 H   0  0  0  0  0  0  0  0  0  0  0  0
   25.3329   10.0050   16.7272 H   0  0  0  0  0  0  0  0  0  0  0  0
   26.7408    8.9784   16.3486 H   0  0  0  0  0  0  0  0  0  0  0  0
   25.4686    7.9126   14.5025 H   0  0  0  0  0  0  0  0  0  0  0  0
   23.2455    8.8419   13.8588 H   0  0  0  0  0  0  0  0  0  0  0  0
   23.2982    9.9377   15.2466 H   0  0  0  0  0  0  0  0  0  0  0  0
   23.3480    6.8847   15.3371 H   0  0  0  0  0  0  0  0  0  0  0  0
   21.9403    7.9193   15.6989 H   0  0  0  0  0  0  0  0  0  0  0  0
   23.3440    7.9536   16.7547 H   0  0  0  0  0  0  0  0  0  0  0  0
   26.8275    9.9314   14.0471 H   0  0  0  0  0  0  0  0  0  0  0  0
   25.4394   10.9674   14.4234 H   0  0  0  0  0  0  0  0  0  0  0  0
   24.1583    9.9342   12.5524 H   0  0  0  0  0  0  0  0  0  0  0  0
   25.5308    8.8697   12.2022 H   0  0  0  0  0  0  0  0  0  0  0  0
   26.9214   10.8821   11.7573 H   0  0  0  0  0  0  0  0  0  0  0  0
   25.5281   11.9244   12.1321 H   0  0  0  0  0  0  0  0  0  0  0  0
   24.3322   10.8659   10.3420 H   0  0  0  0  0  0  0  0  0  0  0  0
   27.0129   11.8029    9.5469 H   0  0  0  0  0  0  0  0  0  0  0  0
   25.6211   12.8445    9.9227 H   0  0  0  0  0  0  0  0  0  0  0  0
   24.3341   11.7855    8.0792 H   0  0  0  0  0  0  0  0  0  0  0  0
   25.7233   10.7443    7.7062 H   0  0  0  0  0  0  0  0  0  0  0  0
   27.1121   12.7611    7.2603 H   0  0  0  0  0  0  0  0  0  0  0  0
   25.7231   13.7998    7.6317 H   0  0  0  0  0  0  0  0  0  0  0  0
   24.4356   12.7387    5.7876 H   0  0  0  0  0  0  0  0  0  0  0  0
   25.8235   11.6978    5.4169 H   0  0  0  0  0  0  0  0  0  0  0  0
   27.2140   13.7121    4.9706 H   0  0  0  0  0  0  0  0  0  0  0  0
   25.8249   14.7521    5.3394 H   0  0  0  0  0  0  0  0  0  0  0  0
   24.5385   13.6863    3.4956 H   0  0  0  0  0  0  0  0  0  0  0  0
   25.9290   12.6483    3.1262 H   0  0  0  0  0  0  0  0  0  0  0  0
   27.3156   14.6646    2.6799 H   0  0  0  0  0  0  0  0  0  0  0  0
   25.9251   15.7026    3.0492 H   0  0  0  0  0  0  0  0  0  0  0  0
   24.6401   14.6388    1.2048 H   0  0  0  0  0  0  0  0  0  0  0  0
   26.0293   13.5988    0.8361 H   0  0  0  0  0  0  0  0  0  0  0  0
   27.4182   15.6140    0.3898 H   0  0  0  0  0  0  0  0  0  0  0  0
   26.0280   16.6528    0.7565 H   0  0  0  0  0  0  0  0  0  0  0  0
   24.7433   15.5852   -1.0874 H   0  0  0  0  0  0  0  0  0  0  0  0
   26.1358   14.5472   -1.4560 H   0  0  0  0  0  0  0  0  0  0  0  0
   27.5211   16.5572   -1.9048 H   0  0  0  0  0  0  0  0  0  0  0  0
   26.1303   17.6051   -1.5316 H   0  0  0  0  0  0  0  0  0  0  0  0
   24.9185   16.5286   -3.2828 H   0  0  0  0  0  0  0  0  0  0  0  0
   27.5161   17.4183   -4.0804 H   0  0  0  0  0  0  0  0  0  0  0  0
   25.0050   17.4265   -5.4680 H   0  0  0  0  0  0  0  0  0  0  0  0
   26.2723   19.3486   -5.8884 H   0  0  0  0  0  0  0  0  0  0  0  0
   28.3985   18.4538   -5.3257 H   0  0  0  0  0  0  0  0  0  0  0  0
   28.0763   16.3127   -6.1740 H   0  0  0  0  0  0  0  0  0  0  0  0
   26.9680   16.9766   -8.1025 H   0  0  0  0  0  0  0  0  0  0  0  0
   28.1737   18.8675   -8.5123 H   0  0  0  0  0  0  0  0  0  0  0  0
   30.2736   18.0516   -7.8942 H   0  0  0  0  0  0  0  0  0  0  0  0
   30.0000   15.9033   -8.8013 H   0  0  0  0  0  0  0  0  0  0  0  0
   28.8930   16.5012  -10.7312 H   0  0  0  0  0  0  0  0  0  0  0  0
   30.0947   18.4372  -11.2108 H   0  0  0  0  0  0  0  0  0  0  0  0
   32.1370   17.6707  -10.5648 H   0  0  0  0  0  0  0  0  0  0  0  0
   31.9207   15.5082  -11.3806 H   0  0  0  0  0  0  0  0  0  0  0  0
   30.7844   16.0472  -13.3715 H   0  0  0  0  0  0  0  0  0  0  0  0
   31.9158   17.9759  -13.8490 H   0  0  0  0  0  0  0  0  0  0  0  0
   34.0358   17.2520  -13.2353 H   0  0  0  0  0  0  0  0  0  0  0  0
   33.8809   15.0687  -14.0805 H   0  0  0  0  0  0  0  0  0  0  0  0
   32.6898   15.5656  -15.9576 H   0  0  0  0  0  0  0  0  0  0  0  0
   33.8087   17.5350  -16.4872 H   0  0  0  0  0  0  0  0  0  0  0  0
   35.9644   16.8136  -15.9205 H   0  0  0  0  0  0  0  0  0  0  0  0
   35.8092   14.6629  -16.6439 H   0  0  0  0  0  0  0  0  0  0  0  0
   34.6051   15.1221  -18.5989 H   0  0  0  0  0  0  0  0  0  0  0  0
   35.7441   17.1112  -19.1642 H   0  0  0  0  0  0  0  0  0  0  0  0
   37.8338   16.4779  -18.5306 H   0  0  0  0  0  0  0  0  0  0  0  0
   37.7683   14.2562  -19.3298 H   0  0  0  0  0  0  0  0  0  0  0  0
   36.5648   14.6882  -21.2906 H   0  0  0  0  0  0  0  0  0  0  0  0
   37.6061   16.6506  -21.8169 H   0  0  0  0  0  0  0  0  0  0  0  0
   39.6943   16.0791  -21.1824 H   0  0  0  0  0  0  0  0  0  0  0  0
   39.6630   13.8864  -21.9273 H   0  0  0  0  0  0  0  0  0  0  0  0
   38.5074   14.2358  -23.9074 H   0  0  0  0  0  0  0  0  0  0  0  0
   39.4801   16.2137  -24.4943 H   0  0  0  0  0  0  0  0  0  0  0  0
   41.5832   15.6979  -23.8525 H   0  0  0  0  0  0  0  0  0  0  0  0
   41.5963   13.4826  -24.5606 H   0  0  0  0  0  0  0  0  0  0  0  0
   40.3965   13.7998  -26.5205 H   0  0  0  0  0  0  0  0  0  0  0  0
   41.4135   15.7929  -27.1457 H   0  0  0  0  0  0  0  0  0  0  0  0
   43.5435   15.2868  -26.5036 H   0  0  0  0  0  0  0  0  0  0  0  0
   43.5855   13.0986  -27.1548 H   0  0  0  0  0  0  0  0  0  0  0  0
   42.3744   13.3419  -29.1426 H   0  0  0  0  0  0  0  0  0  0  0  0
   43.2790   15.3414  -29.8117 H   0  0  0  0  0  0  0  0  0  0  0  0
   45.4575   14.8981  -29.1785 H   0  0  0  0  0  0  0  0  0  0  0  0
   45.5206   12.7256  -29.8188 H   0  0  0  0  0  0  0  0  0  0  0  0
   44.2933   12.8857  -31.6963 H   0  0  0  0  0  0  0  0  0  0  0  0
   45.1503   14.8794  -32.4214 H   0  0  0  0  0  0  0  0  0  0  0  0
   47.3490   14.5532  -31.7898 H   0  0  0  0  0  0  0  0  0  0  0  0
   47.4986   12.3335  -32.3870 H   0  0  0  0  0  0  0  0  0  0  0  0
   46.2661   12.4330  -34.3768 H   0  0  0  0  0  0  0  0  0  0  0  0
   47.1139   14.4586  -35.1303 H   0  0  0  0  0  0  0  0  0  0  0  0
   49.2888   14.1659  -34.4757 H   0  0  0  0  0  0  0  0  0  0  0  0
   49.4595   11.9553  -35.0487 H   0  0  0  0  0  0  0  0  0  0  0  0
   48.2030   12.0234  -36.9455 H   0  0  0  0  0  0  0  0  0  0  0  0
   48.9560   14.0122  -37.7149 H   0  0  0  0  0  0  0  0  0  0  0  0
   51.1666   13.7968  -37.0793 H   0  0  0  0  0  0  0  0  0  0  0  0
   51.4194   11.5540  -37.5869 H   0  0  0  0  0  0  0  0  0  0  0  0
   50.1719   11.5295  -39.5601 H   0  0  0  0  0  0  0  0  0  0  0  0
   50.9026   13.5924  -40.3735 H   0  0  0  0  0  0  0  0  0  0  0  0
   53.1225   13.4011  -39.7308 H   0  0  0  0  0  0  0  0  0  0  0  0
   53.4059   11.1687  -40.2260 H   0  0  0  0  0  0  0  0  0  0  0  0
   52.1812   11.0891  -42.1674 H   0  0  0  0  0  0  0  0  0  0  0  0
   54.3804   12.5827  -43.2447 H   0  0  0  0  0  0  0  0  0  0  0  0
   52.8734   13.1678  -43.0212 H   0  0  0  0  0  0  0  0  0  0  0  0
  1  2  1  0  0  0  0
  1 80  1  0  0  0  0
  1 81  1  0  0  0  0
  1 82  1  0  0  0  0
  2  3  1  0  0  0  0
  2  5  1  0  0  0  0
  2 83  1  0  0  0  0
  3  4  1  0  0  0  0
  3 84  1  0  0  0  0
  3 85  1  0  0  0  0
  4 86  1  0  0  0  0
  4 87  1  0  0  0  0
  4 88  1  0  0  0  0
  5  6  1  0  0  0  0
  5 89  1  0  0  0  0
  5 90  1  0  0  0  0
  6  7  1  0  0  0  0
  6 91  1  0  0  0  0
  6 92  1  0  0  0  0
  7  8  1  0  0  0  0
  7 93  1  0  0  0  0
  7 94  1  0  0  0  0
  8  9  1  0  0  0  0
  8 95  1  0  0  0  0
  9 10  1  0  0  0  0
  9 96  1  0  0  0  0
  9 97  1  0  0  0  0
 10 11  1  0  0  0  0
 10 98  1  0  0  0  0
 10 99  1  0  0  0  0
 11 12  1  0  0  0  0
 11100  1  0  0  0  0
 11101  1  0  0  0  0
 12 13  1  0  0  0  0
 12102  1  0  0  0  0
 12103  1  0  0  0  0
 13 14  1  0  0  0  0
 13104  1  0  0  0  0
 13105  1  0  0  0  0
 14 15  1  0  0  0  0
 14106  1  0  0  0  0
 14107  1  0  0  0  0
 15 16  1  0  0  0  0
 15108  1  0  0  0  0
 15109  1  0  0  0  0
 16 17  1  0  0  0  0
 16110  1  0  0  0  0
 16111  1  0  0  0  0
 17 18  1  0  0  0  0
 17112  1  0  0  0  0
 17113  1  0  0  0  0
 18 19  1  0  0  0  0
 18114  1  0  0  0  0
 18115  1  0  0  0  0
 19 20  1  0  0  0  0
 19116  1  0  0  0  0
 19117  1  0  0  0  0
 20 21  1  0  0  0  0
 20118  1  0  0  0  0
 21 22  1  0  0  0  0
 21119  1  0  0  0  0
 22 23  1  0  0  0  0
 22120  1  0  0  0  0
 23 24  1  0  0  0  0
 23121  1  0  0  0  0
 24 25  1  0  0  0  0
 24122  1  0  0  0  0
 25 26  1  0  0  0  0
 25123  1  0  0  0  0
 26 27  1  0  0  0  0
 26124  1  0  0  0  0
 27 28  1  0  0  0  0
 27125  1  0  0  0  0
 28 29  1  0  0  0  0
 28126  1  0  0  0  0
 29 30  1  0  0  0  0
 29127  1  0  0  0  0
 30 31  1  0  0  0  0
 30128  1  0  0  0  0
 31 32  1  0  0  0  0
 31129  1  0  0  0  0
 32 33  1  0  0  0  0
 32130  1  0  0  0  0
 33 34  1  0  0  0  0
 33131  1  0  0  0  0
 34 35  1  0  0  0  0
 34132  1  0  0  0  0
 35 36  1  0  0  0  0
 35133  1  0  0  0  0
 36 37  1  0  0  0  0
 36134  1  0  0  0  0
 37 38  1  0  0  0  0
 37135  1  0  0  0  0
 38 39  1  0  0  0  0
 38136  1  0  0  0  0
 39 40  1  0  0  0  0
 39137  1  0  0  0  0
 40 41  1  0  0  0  0
 40138  1  0  0  0  0
 41 42  1  0  0  0  0
 41139  1  0  0  0  0
 42 43  1  0  0  0  0
 42140  1  0  0  0  0
 43 44  1  0  0  0  0
 43141  1  0  0  0  0
 44 45  1  0  0  0  0
 44142  1  0  0  0  0
 45 46  1  0  0  0  0
 45143  1  0  0  0  0
 46 47  1  0  0  0  0
 46144  1  0  0  0  0
 47 48  1  0  0  0  0
 47145  1  0  0  0  0
 48 49  1  0  0  0  0
 48146  1  0  0  0  0
 49 50  1  0  0  0  0
 49147  1  0  0  0  0
 50 51  1  0  0  0  0
 50148  1  0  0  0  0
 51 52  1  0  0  0  0
 51149  1  0  0  0  0
 52 53  1  0  0  0  0
 52150  1  0  0  0  0
 53 54  1  0  0  0  0
 53151  1  0  0  0  0
 54 55  1  0  0  0  0
 54152  1  0  0  0  0
 55 56  1  0  0  0  0
 55153  1  0  0  0  0
 56 57  1  0  0  0  0
 56154  1  0  0  0  0
 57 58  1  0  0  0  0
 57155  1  0  0  0  0
 58 59  1  0  0  0  0
 58156  1  0  0  0  0
 59 60  1  0  0  0  0
 59157  1  0  0  0  0
 60 61  1  0  0  0  0
 60158  1  0  0  0  0
 61 62  1  0  0  0  0
 61159  1  0  0  0  0
 62 63  1  0  0  0  0
 62160  1  0  0  0  0
 63 64  1  0  0  0  0
 63161  1  0  0  0  0
 64 65  1  0  0  0  0
 64162  1  0  0  0  0
 65 66  1  0  0  0  0
 65163  1  0  0  0  0
 66 67  1  0  0  0  0
 66164  1  0  0  0  0
 67 68  1  0  0  0  0
 67165  1  0  0  0  0
 68 69  1  0  0  0  0
 68166  1  0  0  0  0
 69 70  1  0  0  0  0
 69167  1  0  0  0  0
 70 71  1  0  0  0  0
 70168  1  0  0  0  0
 71 72  1  0  0  0  0
 71169  1  0  0  0  0
 72 73  1  0  0  0  0
 72170  1  0  0  0  0
 73 74  1  0  0  0  0
 73171  1  0  0  0  0
 74 75  1  0  0  0  0
 74172  1  0  0  0  0
 75 76  1  0  0  0  0
 75173  1  0  0  0  0
 76 77  1  0  0  0  0
 76174  1  0  0  0  0
 77 78  1  0  0  0  0
 77175  1  0  0  0  0
 78 79  1  0  0  0  0
 78176  1  0  0  0  0
 79177  1  0  0  0  0
 79178  1  0  0  0  0
M  END
$$$$
