
 OpenBabel04232216513D

 34 34  0  0  0  0  0  0  0  0999 V2000
    4.2467   -0.0652    3.7562 C   0  0  0  0  0  0  0  0  0  0  0  0
    4.7701    0.3821    2.4042 C   0  0  0  0  0  0  0  0  0  0  0  0
    3.7072    1.1134    1.5882 C   0  0  0  0  0  0  0  0  0  0  0  0
    4.2580    1.4830    0.2552 C   0  0  0  0  0  0  0  0  0  0  0  0
    4.4420    2.6702   -0.3139 C   0  0  0  0  0  0  0  0  0  0  0  0
    4.1217    4.0185    0.2161 C   0  0  0  0  0  0  0  0  0  0  0  0
    5.3206    4.9667    0.3458 C   0  0  0  0  0  0  0  0  0  0  0  0
    4.7964    6.2867    0.9152 C   0  0  0  0  0  0  0  0  0  0  0  0
    5.8500    7.3687    1.1221 C   0  0  0  0  0  0  0  0  0  0  0  0
    5.1668    8.6123    1.7015 C   0  0  0  0  0  0  0  0  0  0  0  0
    6.1379    9.7523    1.9398 C   0  0  0  0  0  0  0  0  0  0  0  0
    3.4927    1.7635   -0.9269 C   0  0  0  0  0  0  0  0  0  0  0  0
    5.0418   -0.5683    4.3139 H   0  0  0  0  0  0  0  0  0  0  0  0
    3.4133   -0.7670    3.6476 H   0  0  0  0  0  0  0  0  0  0  0  0
    3.9033    0.7881    4.3503 H   0  0  0  0  0  0  0  0  0  0  0  0
    5.1282   -0.4952    1.8515 H   0  0  0  0  0  0  0  0  0  0  0  0
    5.6336    1.0460    2.5548 H   0  0  0  0  0  0  0  0  0  0  0  0
    3.3537    1.9917    2.1399 H   0  0  0  0  0  0  0  0  0  0  0  0
    2.8313    0.4658    1.4463 H   0  0  0  0  0  0  0  0  0  0  0  0
    3.6365    3.9397    1.1959 H   0  0  0  0  0  0  0  0  0  0  0  0
    3.3838    4.4841   -0.4509 H   0  0  0  0  0  0  0  0  0  0  0  0
    5.7908    5.1341   -0.6317 H   0  0  0  0  0  0  0  0  0  0  0  0
    6.0837    4.5392    1.0084 H   0  0  0  0  0  0  0  0  0  0  0  0
    4.3053    6.0851    1.8758 H   0  0  0  0  0  0  0  0  0  0  0  0
    4.0239    6.6758    0.2401 H   0  0  0  0  0  0  0  0  0  0  0  0
    6.3293    7.6146    0.1676 H   0  0  0  0  0  0  0  0  0  0  0  0
    6.6310    7.0144    1.8037 H   0  0  0  0  0  0  0  0  0  0  0  0
    4.6763    8.3563    2.6490 H   0  0  0  0  0  0  0  0  0  0  0  0
    4.3795    8.9520    1.0176 H   0  0  0  0  0  0  0  0  0  0  0  0
    6.9153    9.4623    2.6519 H   0  0  0  0  0  0  0  0  0  0  0  0
    5.6044   10.6160    2.3505 H   0  0  0  0  0  0  0  0  0  0  0  0
    6.6158   10.0606    1.0058 H   0  0  0  0  0  0  0  0  0  0  0  0
    3.7891    1.2228   -1.8121 H   0  0  0  0  0  0  0  0  0  0  0  0
    2.4451    1.9869   -0.7950 H   0  0  0  0  0  0  0  0  0  0  0  0
  1  2  1  0  0  0  0
  1 13  1  0  0  0  0
  1 14  1  0  0  0  0
  1 15  1  0  0  0  0
  2  3  1  0  0  0  0
  2 16  1  0  0  0  0
  2 17  1  0  0  0  0
  3  4  1  0  0  0  0
  3 18  1  0  0  0  0
  3 19  1  0  0  0  0
  4  5  2  0  0  0  0
  4 12  1  0  0  0  0
  5  6  1  0  0  0  0
  5 12  1  0  0  0  0
  6  7  1  0  0  0  0
  6 20  1  0  0  0  0
  6 21  1  0  0  0  0
  7  8  1  0  0  0  0
  7 22  1  0  0  0  0
  7 23  1  0  0  0  0
  8  9  1  0  0  0  0
  8 24  1  0  0  0  0
  8 25  1  0  0  0  0
  9 10  1  0  0  0  0
  9 26  1  0  0  0  0
  9 27  1  0  0  0  0
 10 11  1  0  0  0  0
 10 28  1  0  0  0  0
 10 29  1  0  0  0  0
 11 30  1  0  0  0  0
 11 31  1  0  0  0  0
 11 32  1  0  0  0  0
 12 33  1  0  0  0  0
 12 34  1  0  0  0  0
M  END
$$$$
