
 OpenBabel04232217003D

161161  0  0  1  0  0  0  0  0999 V2000
    4.4717  -43.1797   18.2166 O   0  0  0  0  0  0  0  0  0  0  0  0
    4.7254  -43.4866   16.8350 C   0  0  3  0  0  0  0  0  0  0  0  0
    5.6132  -42.8042   16.0441 C   0  0  0  0  0  0  0  0  0  0  0  0
    4.4501  -42.4326   15.5799 C   0  0  0  0  0  0  0  0  0  0  0  0
    2.9807  -42.3059   15.4408 C   0  0  0  0  0  0  0  0  0  0  0  0
    2.4766  -42.4408   14.1149 O   0  0  0  0  0  0  0  0  0  0  0  0
    1.0707  -42.1361   14.0626 C   0  0  0  0  0  0  0  0  0  0  0  0
    0.7341  -40.6461   14.0586 C   0  0  0  0  0  0  0  0  0  0  0  0
    1.3959  -39.7740   13.0194 C   0  0  0  0  0  0  0  0  0  0  0  0
    1.0037  -38.4025   13.1792 O   0  0  0  0  0  0  0  0  0  0  0  0
    1.4863  -37.7290   14.3473 C   0  0  0  0  0  0  0  0  0  0  0  0
    2.8783  -37.9442   14.5411 O   0  0  0  0  0  0  0  0  0  0  0  0
    3.4296  -37.1859   15.6181 C   0  0  0  0  0  0  0  0  0  0  0  0
    3.0988  -37.6219   16.9375 O   0  0  0  0  0  0  0  0  0  0  0  0
    3.1843  -39.0357   17.0738 C   0  0  0  0  0  0  0  0  0  0  0  0
    2.6372  -39.5575   18.3142 O   0  0  0  0  0  0  0  0  0  0  0  0
    2.4682  -40.9758   18.1485 C   0  0  0  0  0  0  0  0  0  0  0  0
    1.8627  -41.7763   19.1575 O   0  0  0  0  0  0  0  0  0  0  0  0
    0.4623  -42.0600   18.9862 C   0  0  0  0  0  0  0  0  0  0  0  0
    0.0012  -42.5761   17.7298 O   0  0  0  0  0  0  0  0  0  0  0  0
   -1.4009  -42.2565   17.5796 C   0  0  0  0  0  0  0  0  0  0  0  0
   -1.7342  -40.8497   17.5832 O   0  0  0  0  0  0  0  0  0  0  0  0
   -1.0229  -40.1447   16.5753 C   0  0  0  0  0  0  0  0  0  0  0  0
   -1.1983  -38.7250   16.5094 O   0  0  0  0  0  0  0  0  0  0  0  0
   -0.7333  -38.0184   17.6535 C   0  0  0  0  0  0  0  0  0  0  0  0
    0.6515  -37.8326   17.8065 O   0  0  0  0  0  0  0  0  0  0  0  0
    0.9884  -37.2888   19.1111 C   0  0  0  0  0  0  0  0  0  0  0  0
    0.3400  -37.8704   20.2735 O   0  0  0  0  0  0  0  0  0  0  0  0
    0.7347  -39.2258   20.4372 C   0  0  0  0  0  0  0  0  0  0  0  0
    0.0356  -40.0584   21.3712 O   0  0  0  0  0  0  0  0  0  0  0  0
   -1.3842  -40.1388   21.3077 C   0  0  0  0  0  0  0  0  0  0  0  0
   -2.0094  -40.8500   20.2582 O   0  0  0  0  0  0  0  0  0  0  0  0
   -3.4427  -40.6391   20.2467 C   0  0  0  0  0  0  0  0  0  0  0  0
   -3.9416  -39.2804   20.2984 O   0  0  0  0  0  0  0  0  0  0  0  0
   -3.4055  -38.4998   19.2406 C   0  0  0  0  0  0  0  0  0  0  0  0
   -3.7205  -37.1120   19.2305 O   0  0  0  0  0  0  0  0  0  0  0  0
   -3.0884  -36.3346   20.2556 C   0  0  0  0  0  0  0  0  0  0  0  0
   -1.6629  -36.4116   20.2859 O   0  0  0  0  0  0  0  0  0  0  0  0
   -1.1081  -35.6068   21.3506 C   0  0  0  0  0  0  0  0  0  0  0  0
   -1.5280  -35.9758   22.6811 O   0  0  0  0  0  0  0  0  0  0  0  0
   -1.1211  -37.3096   22.9508 C   0  0  0  0  0  0  0  0  0  0  0  0
   -1.7946  -37.9641   24.0202 O   0  0  0  0  0  0  0  0  0  0  0  0
   -3.1287  -38.3267   23.6652 C   0  0  0  0  0  0  0  0  0  0  0  0
   -3.6493  -39.3467   24.5143 O   0  0  0  0  0  0  0  0  0  0  0  0
   -5.0738  -39.3930   24.4749 C   0  0  0  0  0  0  0  0  0  0  0  0
   -5.6457  -39.9142   23.2839 O   0  0  0  0  0  0  0  0  0  0  0  0
   -7.0220  -39.4999   23.1989 C   0  0  0  0  0  0  0  0  0  0  0  0
   -7.2291  -38.0759   23.1401 O   0  0  0  0  0  0  0  0  0  0  0  0
   -6.5807  -37.4617   22.0315 C   0  0  0  0  0  0  0  0  0  0  0  0
   -6.7200  -36.0385   21.9684 O   0  0  0  0  0  0  0  0  0  0  0  0
   -6.2190  -35.2995   23.0793 C   0  0  0  0  0  0  0  0  0  0  0  0
   -4.8167  -35.2945   23.2879 O   0  0  0  0  0  0  0  0  0  0  0  0
   -4.4726  -34.6056   24.5169 C   0  0  0  0  0  0  0  0  0  0  0  0
   -5.0385  -35.0798   25.7716 O   0  0  0  0  0  0  0  0  0  0  0  0
   -4.8762  -36.4777   25.9196 C   0  0  0  0  0  0  0  0  0  0  0  0
   -5.5285  -37.1608   26.9922 O   0  0  0  0  0  0  0  0  0  0  0  0
   -6.9509  -37.2048   26.9250 C   0  0  0  0  0  0  0  0  0  0  0  0
   -7.5711  -38.0653   25.9708 O   0  0  0  0  0  0  0  0  0  0  0  0
   -9.0087  -37.8563   25.9551 C   0  0  0  0  0  0  0  0  0  0  0  0
   -9.4844  -36.4974   25.8842 O   0  0  0  0  0  0  0  0  0  0  0  0
   -9.0435  -35.8503   24.6995 C   0  0  0  0  0  0  0  0  0  0  0  0
   -9.1808  -34.4309   24.5977 O   0  0  0  0  0  0  0  0  0  0  0  0
   -8.6130  -33.6924   25.6752 C   0  0  0  0  0  0  0  0  0  0  0  0
   -7.2036  -33.5266   25.6553 O   0  0  0  0  0  0  0  0  0  0  0  0
   -6.7209  -32.7349   26.7625 C   0  0  0  0  0  0  0  0  0  0  0  0
   -7.1904  -33.0642   28.0831 O   0  0  0  0  0  0  0  0  0  0  0  0
   -6.8068  -34.3841   28.4370 C   0  0  0  0  0  0  0  0  0  0  0  0
   -7.2377  -34.8483   29.7118 O   0  0  0  0  0  0  0  0  0  0  0  0
   -8.6531  -34.9998   29.8202 C   0  0  0  0  0  0  0  0  0  0  0  0
   -9.2347  -35.7926   28.7919 O   0  0  0  0  0  0  0  0  0  0  0  0
  -10.6532  -35.8998   28.9145 C   0  0  0  0  0  0  0  0  0  0  0  0
  -11.3771  -34.6683   28.9229 O   0  0  0  0  0  0  0  0  0  0  0  0
  -11.1423  -33.8901   27.7617 C   0  0  0  0  0  0  0  0  0  0  0  0
  -11.4973  -34.5461   26.5586 O   0  0  0  0  0  0  0  0  0  0  0  0
  -12.9027  -34.6205   26.4095 C   0  0  0  0  0  0  0  0  0  0  0  0
  -13.2792  -35.3747   25.2629 O   0  0  0  0  0  0  0  0  0  0  0  0
  -12.9284  -36.7399   25.3870 C   0  0  0  0  0  0  0  0  0  0  0  0
  -13.5357  -37.5242   24.3611 O   0  0  0  0  0  0  0  0  0  0  0  0
  -13.1119  -37.1080   23.0696 C   0  0  0  0  0  0  0  0  0  0  0  0
    5.2563  -43.0670   18.7599 H   0  0  0  0  0  0  0  0  0  0  0  0
    4.4761  -44.4962   16.5388 H   0  0  0  0  0  0  0  0  0  0  0  0
    6.6577  -42.6259   15.9007 H   0  0  0  0  0  0  0  0  0  0  0  0
    2.8833  -41.2503   15.6585 H   0  0  0  0  0  0  0  0  0  0  0  0
    2.4152  -42.9352   16.1326 H   0  0  0  0  0  0  0  0  0  0  0  0
    0.5641  -42.6059   14.9214 H   0  0  0  0  0  0  0  0  0  0  0  0
    0.6514  -42.6114   13.1750 H   0  0  0  0  0  0  0  0  0  0  0  0
    1.0067  -40.2313   15.0234 H   0  0  0  0  0  0  0  0  0  0  0  0
   -0.3491  -40.5242   13.9473 H   0  0  0  0  0  0  0  0  0  0  0  0
    1.0429  -40.0836   12.0301 H   0  0  0  0  0  0  0  0  0  0  0  0
    2.4839  -39.8620   13.0308 H   0  0  0  0  0  0  0  0  0  0  0  0
    0.9132  -38.0490   15.2165 H   0  0  0  0  0  0  0  0  0  0  0  0
    1.2911  -36.6607   14.1956 H   0  0  0  0  0  0  0  0  0  0  0  0
    3.1519  -36.1300   15.5203 H   0  0  0  0  0  0  0  0  0  0  0  0
    4.5178  -37.2419   15.5181 H   0  0  0  0  0  0  0  0  0  0  0  0
    4.2257  -39.3546   16.9764 H   0  0  0  0  0  0  0  0  0  0  0  0
    2.5798  -39.4439   16.2715 H   0  0  0  0  0  0  0  0  0  0  0  0
    3.4805  -41.3201   18.0364 H   0  0  0  0  0  0  0  0  0  0  0  0
    1.8739  -41.1317   17.2613 H   0  0  0  0  0  0  0  0  0  0  0  0
   -0.0704  -41.1394   19.1035 H   0  0  0  0  0  0  0  0  0  0  0  0
    0.1419  -42.7139   19.8015 H   0  0  0  0  0  0  0  0  0  0  0  0
   -1.9607  -42.7417   18.3933 H   0  0  0  0  0  0  0  0  0  0  0  0
   -1.7589  -42.7020   16.6479 H   0  0  0  0  0  0  0  0  0  0  0  0
   -1.4004  -40.5389   15.6347 H   0  0  0  0  0  0  0  0  0  0  0  0
    0.0341  -40.3372   16.7003 H   0  0  0  0  0  0  0  0  0  0  0  0
   -0.9846  -38.6357   18.4817 H   0  0  0  0  0  0  0  0  0  0  0  0
   -1.2234  -37.0441   17.6707 H   0  0  0  0  0  0  0  0  0  0  0  0
    0.7529  -36.2226   19.0884 H   0  0  0  0  0  0  0  0  0  0  0  0
    2.0755  -37.3494   19.2545 H   0  0  0  0  0  0  0  0  0  0  0  0
    1.7938  -39.2731   20.7118 H   0  0  0  0  0  0  0  0  0  0  0  0
    0.6256  -39.6392   19.4608 H   0  0  0  0  0  0  0  0  0  0  0  0
   -1.7526  -39.1551   21.1776 H   0  0  0  0  0  0  0  0  0  0  0  0
   -1.7243  -40.5518   22.2673 H   0  0  0  0  0  0  0  0  0  0  0  0
   -3.8712  -41.1694   21.1034 H   0  0  0  0  0  0  0  0  0  0  0  0
   -3.8337  -41.1172   19.3426 H   0  0  0  0  0  0  0  0  0  0  0  0
   -3.6818  -38.9239   18.2696 H   0  0  0  0  0  0  0  0  0  0  0  0
   -2.3582  -38.5620   19.3828 H   0  0  0  0  0  0  0  0  0  0  0  0
   -3.5050  -36.6369   21.2147 H   0  0  0  0  0  0  0  0  0  0  0  0
   -3.3555  -35.2927   20.0537 H   0  0  0  0  0  0  0  0  0  0  0  0
   -1.3656  -34.5579   21.1816 H   0  0  0  0  0  0  0  0  0  0  0  0
   -0.0134  -35.6635   21.3012 H   0  0  0  0  0  0  0  0  0  0  0  0
   -0.0380  -37.3971   23.0761 H   0  0  0  0  0  0  0  0  0  0  0  0
   -1.3504  -37.8411   22.0586 H   0  0  0  0  0  0  0  0  0  0  0  0
   -3.1991  -38.7099   22.6500 H   0  0  0  0  0  0  0  0  0  0  0  0
   -3.7103  -37.4129   23.7126 H   0  0  0  0  0  0  0  0  0  0  0  0
   -5.4268  -38.3949   24.5093 H   0  0  0  0  0  0  0  0  0  0  0  0
   -5.4522  -39.8938   25.3709 H   0  0  0  0  0  0  0  0  0  0  0  0
   -7.5617  -39.8869   24.0745 H   0  0  0  0  0  0  0  0  0  0  0  0
   -7.4736  -39.9708   22.3212 H   0  0  0  0  0  0  0  0  0  0  0  0
   -7.0468  -37.8580   21.1236 H   0  0  0  0  0  0  0  0  0  0  0  0
   -5.5195  -37.7051   22.0225 H   0  0  0  0  0  0  0  0  0  0  0  0
   -6.5935  -35.7508   23.9614 H   0  0  0  0  0  0  0  0  0  0  0  0
   -6.6056  -34.2776   23.0063 H   0  0  0  0  0  0  0  0  0  0  0  0
   -4.7572  -33.5527   24.4100 H   0  0  0  0  0  0  0  0  0  0  0  0
   -3.3836  -34.6393   24.6055 H   0  0  0  0  0  0  0  0  0  0  0  0
   -3.8114  -36.7152   25.9785 H   0  0  0  0  0  0  0  0  0  0  0  0
   -5.3024  -36.8497   25.0216 H   0  0  0  0  0  0  0  0  0  0  0  0
   -7.2629  -36.2355   26.6070 H   0  0  0  0  0  0  0  0  0  0  0  0
   -7.3264  -37.4640   27.9182 H   0  0  0  0  0  0  0  0  0  0  0  0
   -9.4263  -38.2992   26.8648 H   0  0  0  0  0  0  0  0  0  0  0  0
   -9.4203  -38.4153   25.1065 H   0  0  0  0  0  0  0  0  0  0  0  0
   -9.5038  -36.3034   23.8173 H   0  0  0  0  0  0  0  0  0  0  0  0
   -8.0080  -36.0595   24.6817 H   0  0  0  0  0  0  0  0  0  0  0  0
   -8.8457  -34.2263   26.5783 H   0  0  0  0  0  0  0  0  0  0  0  0
   -9.0790  -32.7022   25.6725 H   0  0  0  0  0  0  0  0  0  0  0  0
   -6.9871  -31.6910   26.5787 H   0  0  0  0  0  0  0  0  0  0  0  0
   -5.6237  -32.7734   26.7569 H   0  0  0  0  0  0  0  0  0  0  0  0
   -5.7241  -34.5269   28.3595 H   0  0  0  0  0  0  0  0  0  0  0  0
   -7.2924  -34.9987   27.7232 H   0  0  0  0  0  0  0  0  0  0  0  0
   -9.0936  -34.0016   29.8326 H   0  0  0  0  0  0  0  0  0  0  0  0
   -8.8438  -35.4896   30.7802 H   0  0  0  0  0  0  0  0  0  0  0  0
  -10.8920  -36.4294   29.8431 H   0  0  0  0  0  0  0  0  0  0  0  0
  -11.0274  -36.5345   28.1007 H   0  0  0  0  0  0  0  0  0  0  0  0
  -10.0924  -33.6089   27.7593 H   0  0  0  0  0  0  0  0  0  0  0  0
  -11.6677  -32.9363   27.8396 H   0  0  0  0  0  0  0  0  0  0  0  0
  -13.2885  -33.6073   26.2659 H   0  0  0  0  0  0  0  0  0  0  0  0
  -13.3673  -35.0511   27.3035 H   0  0  0  0  0  0  0  0  0  0  0  0
  -13.2823  -37.1419   26.3433 H   0  0  0  0  0  0  0  0  0  0  0  0
  -11.8459  -36.8718   25.3365 H   0  0  0  0  0  0  0  0  0  0  0  0
  -13.5711  -37.7680   22.3289 H   0  0  0  0  0  0  0  0  0  0  0  0
  -12.0240  -37.1825   22.9766 H   0  0  0  0  0  0  0  0  0  0  0  0
  -13.4396  -36.0846   22.8643 H   0  0  0  0  0  0  0  0  0  0  0  0
  1  2  1  0  0  0  0
  1 80  1  0  0  0  0
  2  3  1  0  0  0  0
  2  4  1  0  0  0  0
  2 81  1  0  0  0  0
  3  4  2  0  0  0  0
  3 82  1  0  0  0  0
  4  5  1  0  0  0  0
  5  6  1  0  0  0  0
  5 83  1  0  0  0  0
  5 84  1  0  0  0  0
  6  7  1  0  0  0  0
  7  8  1  0  0  0  0
  7 85  1  0  0  0  0
  7 86  1  0  0  0  0
  8  9  1  0  0  0  0
  8 87  1  0  0  0  0
  8 88  1  0  0  0  0
  9 10  1  0  0  0  0
  9 89  1  0  0  0  0
  9 90  1  0  0  0  0
 10 11  1  0  0  0  0
 11 12  1  0  0  0  0
 11 91  1  0  0  0  0
 11 92  1  0  0  0  0
 12 13  1  0  0  0  0
 13 14  1  0  0  0  0
 13 93  1  0  0  0  0
 13 94  1  0  0  0  0
 14 15  1  0  0  0  0
 15 16  1  0  0  0  0
 15 95  1  0  0  0  0
 15 96  1  0  0  0  0
 16 17  1  0  0  0  0
 17 18  1  0  0  0  0
 17 97  1  0  0  0  0
 17 98  1  0  0  0  0
 18 19  1  0  0  0  0
 19 20  1  0  0  0  0
 19 99  1  0  0  0  0
 19100  1  0  0  0  0
 20 21  1  0  0  0  0
 21 22  1  0  0  0  0
 21101  1  0  0  0  0
 21102  1  0  0  0  0
 22 23  1  0  0  0  0
 23 24  1  0  0  0  0
 23103  1  0  0  0  0
 23104  1  0  0  0  0
 24 25  1  0  0  0  0
 25 26  1  0  0  0  0
 25105  1  0  0  0  0
 25106  1  0  0  0  0
 26 27  1  0  0  0  0
 27 28  1  0  0  0  0
 27107  1  0  0  0  0
 27108  1  0  0  0  0
 28 29  1  0  0  0  0
 29 30  1  0  0  0  0
 29109  1  0  0  0  0
 29110  1  0  0  0  0
 30 31  1  0  0  0  0
 31 32  1  0  0  0  0
 31111  1  0  0  0  0
 31112  1  0  0  0  0
 32 33  1  0  0  0  0
 33 34  1  0  0  0  0
 33113  1  0  0  0  0
 33114  1  0  0  0  0
 34 35  1  0  0  0  0
 35 36  1  0  0  0  0
 35115  1  0  0  0  0
 35116  1  0  0  0  0
 36 37  1  0  0  0  0
 37 38  1  0  0  0  0
 37117  1  0  0  0  0
 37118  1  0  0  0  0
 38 39  1  0  0  0  0
 39 40  1  0  0  0  0
 39119  1  0  0  0  0
 39120  1  0  0  0  0
 40 41  1  0  0  0  0
 41 42  1  0  0  0  0
 41121  1  0  0  0  0
 41122  1  0  0  0  0
 42 43  1  0  0  0  0
 43 44  1  0  0  0  0
 43123  1  0  0  0  0
 43124  1  0  0  0  0
 44 45  1  0  0  0  0
 45 46  1  0  0  0  0
 45125  1  0  0  0  0
 45126  1  0  0  0  0
 46 47  1  0  0  0  0
 47 48  1  0  0  0  0
 47127  1  0  0  0  0
 47128  1  0  0  0  0
 48 49  1  0  0  0  0
 49 50  1  0  0  0  0
 49129  1  0  0  0  0
 49130  1  0  0  0  0
 50 51  1  0  0  0  0
 51 52  1  0  0  0  0
 51131  1  0  0  0  0
 51132  1  0  0  0  0
 52 53  1  0  0  0  0
 53 54  1  0  0  0  0
 53133  1  0  0  0  0
 53134  1  0  0  0  0
 54 55  1  0  0  0  0
 55 56  1  0  0  0  0
 55135  1  0  0  0  0
 55136  1  0  0  0  0
 56 57  1  0  0  0  0
 57 58  1  0  0  0  0
 57137  1  0  0  0  0
 57138  1  0  0  0  0
 58 59  1  0  0  0  0
 59 60  1  0  0  0  0
 59139  1  0  0  0  0
 59140  1  0  0  0  0
 60 61  1  0  0  0  0
 61 62  1  0  0  0  0
 61141  1  0  0  0  0
 61142  1  0  0  0  0
 62 63  1  0  0  0  0
 63 64  1  0  0  0  0
 63143  1  0  0  0  0
 63144  1  0  0  0  0
 64 65  1  0  0  0  0
 65 66  1  0  0  0  0
 65145  1  0  0  0  0
 65146  1  0  0  0  0
 66 67  1  0  0  0  0
 67 68  1  0  0  0  0
 67147  1  0  0  0  0
 67148  1  0  0  0  0
 68 69  1  0  0  0  0
 69 70  1  0  0  0  0
 69149  1  0  0  0  0
 69150  1  0  0  0  0
 70 71  1  0  0  0  0
 71 72  1  0  0  0  0
 71151  1  0  0  0  0
 71152  1  0  0  0  0
 72 73  1  0  0  0  0
 73 74  1  0  0  0  0
 73153  1  0  0  0  0
 73154  1  0  0  0  0
 74 75  1  0  0  0  0
 75 76  1  0  0  0  0
 75155  1  0  0  0  0
 75156  1  0  0  0  0
 76 77  1  0  0  0  0
 77 78  1  0  0  0  0
 77157  1  0  0  0  0
 77158  1  0  0  0  0
 78 79  1  0  0  0  0
 79159  1  0  0  0  0
 79160  1  0  0  0  0
 79161  1  0  0  0  0
M  END
$$$$
