
 OpenBabel04232217033D

129128  0  0  0  0  0  0  0  0999 V2000
   44.1406  -25.4936   17.7951 S   0  0  0  0  0  0  0  0  0  0  0  0
   45.7492  -25.0787   17.6629 O   0  0  0  0  0  0  0  0  0  0  0  0
   46.0237  -23.7305   18.0213 C   0  0  0  0  0  0  0  0  0  0  0  0
   47.4431  -23.4717   18.2144 N   0  0  0  0  0  0  0  0  0  0  0  0
   48.2569  -23.6927   17.0225 C   0  0  0  0  0  0  0  0  0  0  0  0
   49.6124  -23.2605   17.3166 N   0  0  0  0  0  0  0  0  0  0  0  0
   50.4259  -23.4915   16.1568 N   0  0  0  0  0  0  0  0  0  0  0  0
   51.7697  -23.1159   16.3626 N   0  0  0  0  0  0  0  0  0  0  0  0
   52.5908  -23.5724   15.2825 N   0  0  0  0  0  0  0  0  0  0  0  0
   52.2171  -23.1202   13.9634 N   0  0  0  0  0  0  0  0  0  0  0  0
   52.0808  -21.7454   13.8216 N   0  0  0  0  0  0  0  0  0  0  0  0
   53.2951  -21.0632   13.8406 N   0  0  0  0  0  0  0  0  0  0  0  0
   52.9313  -19.5000   13.5470 S   0  0  0  0  0  0  0  0  0  0  0  0
   52.1031  -19.1424   14.9196 N   0  0  0  0  0  0  0  0  0  0  0  0
   50.6992  -18.3659   14.7023 S   0  0  0  0  0  0  0  0  0  0  0  0
   51.2069  -16.8452   14.3896 N   0  0  0  0  0  0  0  0  0  0  0  0
   50.0511  -16.1082   13.5391 S   0  0  0  0  0  0  0  0  0  0  0  0
   50.5795  -15.4552   12.1572 N   0  0  0  0  0  0  0  0  0  0  0  0
   51.3343  -16.3822   11.0410 S   0  0  0  0  0  0  0  0  0  0  0  0
   50.9965  -17.9830   11.2137 N   0  0  0  0  0  0  0  0  0  0  0  0
   49.4509  -18.5013   10.9780 S   0  0  0  0  0  0  0  0  0  0  0  0
   48.7648  -17.6347    9.7559 N   0  0  0  0  0  0  0  0  0  0  0  0
   47.1352  -17.8882    9.6513 S   0  0  0  0  0  0  0  0  0  0  0  0
   46.4339  -17.3202   11.0321 N   0  0  0  0  0  0  0  0  0  0  0  0
   46.2599  -15.6823   11.0628 S   0  0  0  0  0  0  0  0  0  0  0  0
   47.5686  -15.1616   11.9018 N   0  0  0  0  0  0  0  0  0  0  0  0
   47.5565  -13.5512   12.2571 S   0  0  0  0  0  0  0  0  0  0  0  0
   46.8079  -13.3819   13.7188 N   0  0  0  0  0  0  0  0  0  0  0  0
   47.6088  -14.0236   15.0140 S   0  0  0  0  0  0  0  0  0  0  0  0
   47.0900  -15.6026   15.0145 N   0  0  0  0  0  0  0  0  0  0  0  0
   47.7784  -16.4998   16.2286 S   0  0  0  0  0  0  0  0  0  0  0  0
   46.9925  -16.1942   17.6554 N   0  0  0  0  0  0  0  0  0  0  0  0
   45.3570  -16.4659   17.5835 S   0  0  0  0  0  0  0  0  0  0  0  0
   45.0785  -18.0047   17.0326 N   0  0  0  0  0  0  0  0  0  0  0  0
   45.4778  -19.1998   18.1152 S   0  0  0  0  0  0  0  0  0  0  0  0
   44.8791  -18.8661   19.6167 N   0  0  0  0  0  0  0  0  0  0  0  0
   43.2653  -19.1525   19.8002 S   0  0  0  0  0  0  0  0  0  0  0  0
   43.0601  -20.7867   19.6342 N   0  0  0  0  0  0  0  0  0  0  0  0
   43.4231  -21.6244   21.0145 S   0  0  0  0  0  0  0  0  0  0  0  0
   45.0426  -21.8904   20.8801 N   0  0  0  0  0  0  0  0  0  0  0  0
   45.5727  -23.1075   21.8479 S   0  0  0  0  0  0  0  0  0  0  0  0
   47.0759  -22.7074   22.4122 N   0  0  0  0  0  0  0  0  0  0  0  0
   48.2663  -22.5118   21.2805 S   0  0  0  0  0  0  0  0  0  0  0  0
   47.7803  -21.4305   20.1285 N   0  0  0  0  0  0  0  0  0  0  0  0
   48.5690  -19.9818   20.1383 S   0  0  0  0  0  0  0  0  0  0  0  0
   50.1933  -20.2477   20.2768 N   0  0  0  0  0  0  0  0  0  0  0  0
   50.9073  -20.8266   18.9061 S   0  0  0  0  0  0  0  0  0  0  0  0
   50.9103  -19.6410   17.7783 N   0  0  0  0  0  0  0  0  0  0  0  0
   51.7315  -18.3019   18.2754 S   0  0  0  0  0  0  0  0  0  0  0  0
   53.2516  -18.5511   17.7098 N   0  0  0  0  0  0  0  0  0  0  0  0
   53.9492  -17.1473   17.2022 S   0  0  0  0  0  0  0  0  0  0  0  0
   54.2451  -17.4719   15.6142 N   0  0  0  0  0  0  0  0  0  0  0  0
   54.3180  -16.1456   14.6482 S   0  0  0  0  0  0  0  0  0  0  0  0
   55.8068  -15.5714   14.8620 N   0  0  0  0  0  0  0  0  0  0  0  0
   56.9624  -16.1582   13.8602 S   0  0  0  0  0  0  0  0  0  0  0  0
   58.3535  -15.6739   14.6202 N   0  0  0  0  0  0  0  0  0  0  0  0
   58.5139  -14.0245   14.7331 S   0  0  0  0  0  0  0  0  0  0  0  0
   57.2531  -13.4657   15.6760 N   0  0  0  0  0  0  0  0  0  0  0  0
   57.2859  -13.9440   17.2672 S   0  0  0  0  0  0  0  0  0  0  0  0
   58.8077  -13.7089   17.8198 N   0  0  0  0  0  0  0  0  0  0  0  0
   59.0590  -12.1329   18.2336 S   0  0  0  0  0  0  0  0  0  0  0  0
   60.7004  -12.0383   18.3752 N   0  0  0  0  0  0  0  0  0  0  0  0
   61.2242  -12.4812   19.8786 S   0  0  0  0  0  0  0  0  0  0  0  0
   60.8689  -14.0854   20.0765 N   0  0  0  0  0  0  0  0  0  0  0  0
   61.8342  -15.1168   19.2015 S   0  0  0  0  0  0  0  0  0  0  0  0
   63.4219  -14.8097   19.5580 N   0  0  0  0  0  0  0  0  0  0  0  0
   63.8794  -15.2223   21.0898 S   0  0  0  0  0  0  0  0  0  0  0  0
   63.6526  -16.8464   21.2912 N   0  0  0  0  0  0  0  0  0  0  0  0
   64.6586  -17.8193   20.4054 S   0  0  0  0  0  0  0  0  0  0  0  0
   66.2351  -17.4538   20.7568 N   0  0  0  0  0  0  0  0  0  0  0  0
   66.6220  -17.7795   22.3269 S   0  0  0  0  0  0  0  0  0  0  0  0
   68.2471  -17.5405   22.4675 N   0  0  0  0  0  0  0  0  0  0  0  0
   68.7604  -15.9827   22.2541 S   0  0  0  0  0  0  0  0  0  0  0  0
   67.9761  -14.9886   23.3130 N   0  0  0  0  0  0  0  0  0  0  0  0
   68.3019  -15.3234   24.8971 S   0  0  0  0  0  0  0  0  0  0  0  0
   67.5445  -14.1061   25.7220 N   0  0  0  0  0  0  0  0  0  0  0  0
   65.8918  -14.1784   25.5615 S   0  0  0  0  0  0  0  0  0  0  0  0
   65.2756  -13.1569   26.7042 N   0  0  0  0  0  0  0  0  0  0  0  0
   65.7033  -11.5767   26.4451 S   0  0  0  0  0  0  0  0  0  0  0  0
   64.7095  -10.6470   27.3894 N   0  0  0  0  0  0  0  0  0  0  0  0
   65.1234  -10.7377   28.9871 S   0  0  0  0  0  0  0  0  0  0  0  0
   44.3128  -26.7995   18.0379 H   0  0  0  0  0  0  0  0  0  0  0  0
   45.5295  -23.4963   18.9598 H   0  0  0  0  0  0  0  0  0  0  0  0
   45.6275  -23.0486   17.2593 H   0  0  0  0  0  0  0  0  0  0  0  0
   47.7566  -24.1301   18.9464 H   0  0  0  0  0  0  0  0  0  0  0  0
   47.8515  -23.0959   16.2037 H   0  0  0  0  0  0  0  0  0  0  0  0
   48.2308  -24.7550   16.7421 H   0  0  0  0  0  0  0  0  0  0  0  0
   50.0018  -23.7739   18.0999 H   0  0  0  0  0  0  0  0  0  0  0  0
   50.1605  -22.8430   15.3994 H   0  0  0  0  0  0  0  0  0  0  0  0
   52.1648  -23.4028   17.2626 H   0  0  0  0  0  0  0  0  0  0  0  0
   52.5679  -24.5925   15.2858 H   0  0  0  0  0  0  0  0  0  0  0  0
   51.3099  -23.4934   13.7000 H   0  0  0  0  0  0  0  0  0  0  0  0
   51.4558  -21.3173   14.5088 H   0  0  0  0  0  0  0  0  0  0  0  0
   53.9386  -21.4736   13.1721 H   0  0  0  0  0  0  0  0  0  0  0  0
   52.0103  -19.9523   15.5282 H   0  0  0  0  0  0  0  0  0  0  0  0
   52.1619  -16.8814   14.0253 H   0  0  0  0  0  0  0  0  0  0  0  0
   51.0347  -14.5567   12.3189 H   0  0  0  0  0  0  0  0  0  0  0  0
   51.3795  -18.3645   12.0876 H   0  0  0  0  0  0  0  0  0  0  0  0
   49.2294  -17.8488    8.8773 H   0  0  0  0  0  0  0  0  0  0  0  0
   46.8320  -17.7184   11.8840 H   0  0  0  0  0  0  0  0  0  0  0  0
   48.4390  -15.4108   11.4213 H   0  0  0  0  0  0  0  0  0  0  0  0
   45.8799  -13.7964   13.6767 H   0  0  0  0  0  0  0  0  0  0  0  0
   47.3865  -15.9863   14.1061 H   0  0  0  0  0  0  0  0  0  0  0  0
   47.1764  -15.2227   17.9095 H   0  0  0  0  0  0  0  0  0  0  0  0
   45.6166  -18.1660   16.1786 H   0  0  0  0  0  0  0  0  0  0  0  0
   45.1478  -17.9349   19.9365 H   0  0  0  0  0  0  0  0  0  0  0  0
   43.6917  -21.1176   18.9067 H   0  0  0  0  0  0  0  0  0  0  0  0
   45.5661  -21.0173   20.9548 H   0  0  0  0  0  0  0  0  0  0  0  0
   47.3869  -23.4692   23.0148 H   0  0  0  0  0  0  0  0  0  0  0  0
   47.8423  -21.8806   19.1988 H   0  0  0  0  0  0  0  0  0  0  0  0
   50.3283  -20.9667   20.9821 H   0  0  0  0  0  0  0  0  0  0  0  0
   49.9752  -19.4373   17.4306 H   0  0  0  0  0  0  0  0  0  0  0  0
   53.8286  -19.0729   18.3652 H   0  0  0  0  0  0  0  0  0  0  0  0
   53.4651  -18.0553   15.2871 H   0  0  0  0  0  0  0  0  0  0  0  0
   56.1192  -15.6649   15.8271 H   0  0  0  0  0  0  0  0  0  0  0  0
   59.1558  -16.0611   14.1272 H   0  0  0  0  0  0  0  0  0  0  0  0
   56.3903  -13.8571   15.2735 H   0  0  0  0  0  0  0  0  0  0  0  0
   59.4709  -13.9885   17.0952 H   0  0  0  0  0  0  0  0  0  0  0  0
   60.9901  -11.0798   18.1797 H   0  0  0  0  0  0  0  0  0  0  0  0
   59.8904  -14.2446   19.7868 H   0  0  0  0  0  0  0  0  0  0  0  0
   63.6064  -13.8210   19.3899 H   0  0  0  0  0  0  0  0  0  0  0  0
   62.6734  -17.0811   21.1106 H   0  0  0  0  0  0  0  0  0  0  0  0
   66.4026  -16.4729   20.5448 H   0  0  0  0  0  0  0  0  0  0  0  0
   68.7535  -18.1845   21.8563 H   0  0  0  0  0  0  0  0  0  0  0  0
   66.9667  -15.0351   23.1816 H   0  0  0  0  0  0  0  0  0  0  0  0
   67.8611  -13.2303   25.3113 H   0  0  0  0  0  0  0  0  0  0  0  0
   65.5666  -13.4904   27.6231 H   0  0  0  0  0  0  0  0  0  0  0  0
   63.7423  -10.9227   27.2256 H   0  0  0  0  0  0  0  0  0  0  0  0
   66.3717  -10.2534   28.8907 H   0  0  0  0  0  0  0  0  0  0  0  0
  1  2  1  0  0  0  0
  1 82  1  0  0  0  0
  2  3  1  0  0  0  0
  3  4  1  0  0  0  0
  3 83  1  0  0  0  0
  3 84  1  0  0  0  0
  4  5  1  0  0  0  0
  4 85  1  0  0  0  0
  5  6  1  0  0  0  0
  5 86  1  0  0  0  0
  5 87  1  0  0  0  0
  6  7  1  0  0  0  0
  6 88  1  0  0  0  0
  7  8  1  0  0  0  0
  7 89  1  0  0  0  0
  8  9  1  0  0  0  0
  8 90  1  0  0  0  0
  9 10  1  0  0  0  0
  9 91  1  0  0  0  0
 10 11  1  0  0  0  0
 10 92  1  0  0  0  0
 11 12  1  0  0  0  0
 11 93  1  0  0  0  0
 12 13  1  0  0  0  0
 12 94  1  0  0  0  0
 13 14  1  0  0  0  0
 14 15  1  0  0  0  0
 14 95  1  0  0  0  0
 15 16  1  0  0  0  0
 16 17  1  0  0  0  0
 16 96  1  0  0  0  0
 17 18  1  0  0  0  0
 18 19  1  0  0  0  0
 18 97  1  0  0  0  0
 19 20  1  0  0  0  0
 20 21  1  0  0  0  0
 20 98  1  0  0  0  0
 21 22  1  0  0  0  0
 22 23  1  0  0  0  0
 22 99  1  0  0  0  0
 23 24  1  0  0  0  0
 24 25  1  0  0  0  0
 24100  1  0  0  0  0
 25 26  1  0  0  0  0
 26 27  1  0  0  0  0
 26101  1  0  0  0  0
 27 28  1  0  0  0  0
 28 29  1  0  0  0  0
 28102  1  0  0  0  0
 29 30  1  0  0  0  0
 30 31  1  0  0  0  0
 30103  1  0  0  0  0
 31 32  1  0  0  0  0
 32 33  1  0  0  0  0
 32104  1  0  0  0  0
 33 34  1  0  0  0  0
 34 35  1  0  0  0  0
 34105  1  0  0  0  0
 35 36  1  0  0  0  0
 36 37  1  0  0  0  0
 36106  1  0  0  0  0
 37 38  1  0  0  0  0
 38 39  1  0  0  0  0
 38107  1  0  0  0  0
 39 40  1  0  0  0  0
 40 41  1  0  0  0  0
 40108  1  0  0  0  0
 41 42  1  0  0  0  0
 42 43  1  0  0  0  0
 42109  1  0  0  0  0
 43 44  1  0  0  0  0
 44 45  1  0  0  0  0
 44110  1  0  0  0  0
 45 46  1  0  0  0  0
 46 47  1  0  0  0  0
 46111  1  0  0  0  0
 47 48  1  0  0  0  0
 48 49  1  0  0  0  0
 48112  1  0  0  0  0
 49 50  1  0  0  0  0
 50 51  1  0  0  0  0
 50113  1  0  0  0  0
 51 52  1  0  0  0  0
 52 53  1  0  0  0  0
 52114  1  0  0  0  0
 53 54  1  0  0  0  0
 54 55  1  0  0  0  0
 54115  1  0  0  0  0
 55 56  1  0  0  0  0
 56 57  1  0  0  0  0
 56116  1  0  0  0  0
 57 58  1  0  0  0  0
 58 59  1  0  0  0  0
 58117  1  0  0  0  0
 59 60  1  0  0  0  0
 60 61  1  0  0  0  0
 60118  1  0  0  0  0
 61 62  1  0  0  0  0
 62 63  1  0  0  0  0
 62119  1  0  0  0  0
 63 64  1  0  0  0  0
 64 65  1  0  0  0  0
 64120  1  0  0  0  0
 65 66  1  0  0  0  0
 66 67  1  0  0  0  0
 66121  1  0  0  0  0
 67 68  1  0  0  0  0
 68 69  1  0  0  0  0
 68122  1  0  0  0  0
 69 70  1  0  0  0  0
 70 71  1  0  0  0  0
 70123  1  0  0  0  0
 71 72  1  0  0  0  0
 72 73  1  0  0  0  0
 72124  1  0  0  0  0
 73 74  1  0  0  0  0
 74 75  1  0  0  0  0
 74125  1  0  0  0  0
 75 76  1  0  0  0  0
 76 77  1  0  0  0  0
 76126  1  0  0  0  0
 77 78  1  0  0  0  0
 78 79  1  0  0  0  0
 78127  1  0  0  0  0
 79 80  1  0  0  0  0
 80 81  1  0  0  0  0
 80128  1  0  0  0  0
 81129  1  0  0  0  0
M  END
$$$$
