
 OpenBabel04232216503D

 73 74  0  0  0  0  0  0  0  0999 V2000
    8.1222   -2.4357    1.2717 C   0  0  0  0  0  0  0  0  0  0  0  0
    9.0768   -3.1623   -0.0535 C   0  0  0  0  0  0  0  0  0  0  0  0
    7.5834   -2.8775   -0.8047 C   0  0  0  0  0  0  0  0  0  0  0  0
    6.6525   -1.8395   -1.1154 C   0  0  0  0  0  0  0  0  0  0  0  0
    5.5936   -2.1140   -2.3578 C   0  0  0  0  0  0  0  0  0  0  0  0
    6.6878   -2.5643   -3.2206 C   0  0  0  0  0  0  0  0  0  0  0  0
    7.5088   -3.3106   -4.1694 C   0  0  0  0  0  0  0  0  0  0  0  0
    8.8754   -2.9720   -3.5534 C   0  0  0  0  0  0  0  0  0  0  0  0
    9.8610   -3.7957   -4.1465 C   0  0  0  0  0  0  0  0  0  0  0  0
   11.1165   -3.2157   -3.7150 C   0  0  0  0  0  0  0  0  0  0  0  0
   12.0530   -4.1133   -4.3943 C   0  0  0  0  0  0  0  0  0  0  0  0
   13.3404   -3.3893   -4.4363 C   0  0  0  0  0  0  0  0  0  0  0  0
   14.0991   -4.1543   -5.4345 C   0  0  0  0  0  0  0  0  0  0  0  0
   15.3000   -4.5066   -4.5857 C   0  0  0  0  0  0  0  0  0  0  0  0
   16.1955   -3.8237   -4.2103 O   0  0  0  0  0  0  0  0  0  0  0  0
   15.1379   -5.9291   -4.2266 C   0  0  0  0  0  0  0  0  0  0  0  0
   14.1094   -6.0095   -3.1722 C   0  0  0  0  0  0  0  0  0  0  0  0
   13.5150   -5.3615   -1.6191 C   0  0  0  0  0  0  0  0  0  0  0  0
   15.2664   -5.8992   -1.1027 C   0  0  0  0  0  0  0  0  0  0  0  0
   16.8016   -6.6207   -2.0227 C   0  0  0  0  0  0  0  0  0  0  0  0
   17.5571   -8.1994   -2.5957 C   0  0  0  0  0  0  0  0  0  0  0  0
   18.5851   -8.7124   -3.9492 C   0  0  0  0  0  0  0  0  0  0  0  0
   18.1746  -10.0133   -4.8151 C   0  0  0  0  0  0  0  0  0  0  0  0
   17.5826   -9.7267   -6.2064 C   0  0  0  0  0  0  0  0  0  0  0  0
   16.5033   -8.6996   -5.9879 C   0  0  0  0  0  0  0  0  0  0  0  0
   16.9113   -7.3020   -6.2999 C   0  0  0  0  0  0  0  0  0  0  0  0
   15.8308   -6.3660   -5.7059 C   0  0  0  0  0  0  0  0  0  0  0  0
   12.2331   -4.5570   -0.8349 C   0  0  0  0  0  0  0  0  0  0  0  0
   10.4485   -3.8159   -0.6966 C   0  0  0  0  0  0  0  0  0  0  0  0
    7.0141   -2.7505    1.2114 H   0  0  0  0  0  0  0  0  0  0  0  0
    7.9446   -1.3375    1.1342 H   0  0  0  0  0  0  0  0  0  0  0  0
    8.2139   -2.6916    2.3268 H   0  0  0  0  0  0  0  0  0  0  0  0
    7.0116   -3.8171   -0.7445 H   0  0  0  0  0  0  0  0  0  0  0  0
    6.7987   -0.7510   -1.0152 H   0  0  0  0  0  0  0  0  0  0  0  0
    5.1465   -1.2499   -2.8807 H   0  0  0  0  0  0  0  0  0  0  0  0
    4.8383   -2.8805   -2.1638 H   0  0  0  0  0  0  0  0  0  0  0  0
    6.7756   -3.4623   -2.6128 H   0  0  0  0  0  0  0  0  0  0  0  0
    7.3006   -1.6482   -3.1328 H   0  0  0  0  0  0  0  0  0  0  0  0
    7.4154   -2.9615   -5.2032 H   0  0  0  0  0  0  0  0  0  0  0  0
    7.3942   -4.4004   -4.1027 H   0  0  0  0  0  0  0  0  0  0  0  0
    8.9085   -3.2076   -2.5288 H   0  0  0  0  0  0  0  0  0  0  0  0
    9.1551   -1.8858   -3.5857 H   0  0  0  0  0  0  0  0  0  0  0  0
    9.7558   -3.8553   -5.1957 H   0  0  0  0  0  0  0  0  0  0  0  0
    9.7916   -4.8907   -3.7172 H   0  0  0  0  0  0  0  0  0  0  0  0
   11.3805   -3.1483   -2.6465 H   0  0  0  0  0  0  0  0  0  0  0  0
   11.2660   -2.1542   -4.0478 H   0  0  0  0  0  0  0  0  0  0  0  0
   11.6979   -4.3386   -5.4072 H   0  0  0  0  0  0  0  0  0  0  0  0
   12.0447   -5.0812   -3.8692 H   0  0  0  0  0  0  0  0  0  0  0  0
   13.7292   -3.3543   -3.4082 H   0  0  0  0  0  0  0  0  0  0  0  0
   13.2891   -2.3527   -4.7538 H   0  0  0  0  0  0  0  0  0  0  0  0
   14.2537   -3.7761   -6.4089 H   0  0  0  0  0  0  0  0  0  0  0  0
   13.5752   -5.1399   -5.6246 H   0  0  0  0  0  0  0  0  0  0  0  0
   14.6112   -5.0613   -2.8270 H   0  0  0  0  0  0  0  0  0  0  0  0
   15.2247   -6.3839   -0.1229 H   0  0  0  0  0  0  0  0  0  0  0  0
   15.6904   -4.8926   -0.9280 H   0  0  0  0  0  0  0  0  0  0  0  0
   17.5390   -6.3956   -1.2239 H   0  0  0  0  0  0  0  0  0  0  0  0
   17.0861   -5.9083   -2.8041 H   0  0  0  0  0  0  0  0  0  0  0  0
   16.8933   -9.0380   -2.4016 H   0  0  0  0  0  0  0  0  0  0  0  0
   18.3835   -8.2668   -1.8589 H   0  0  0  0  0  0  0  0  0  0  0  0
   19.5353   -9.0813   -3.5074 H   0  0  0  0  0  0  0  0  0  0  0  0
   18.9465   -7.9140   -4.6070 H   0  0  0  0  0  0  0  0  0  0  0  0
   17.4379  -10.5929   -4.2510 H   0  0  0  0  0  0  0  0  0  0  0  0
   19.0187  -10.7074   -4.9874 H   0  0  0  0  0  0  0  0  0  0  0  0
   17.1163  -10.6379   -6.6154 H   0  0  0  0  0  0  0  0  0  0  0  0
   18.3435   -9.4417   -6.9515 H   0  0  0  0  0  0  0  0  0  0  0  0
   16.2172   -8.7044   -4.9368 H   0  0  0  0  0  0  0  0  0  0  0  0
   15.6103   -8.9432   -6.5645 H   0  0  0  0  0  0  0  0  0  0  0  0
   16.9257   -7.1818   -7.4045 H   0  0  0  0  0  0  0  0  0  0  0  0
   17.9418   -7.0192   -6.0416 H   0  0  0  0  0  0  0  0  0  0  0  0
   15.0152   -6.4067   -6.4342 H   0  0  0  0  0  0  0  0  0  0  0  0
   16.4003   -5.4569   -6.0151 H   0  0  0  0  0  0  0  0  0  0  0  0
   12.6736   -4.0245    0.0204 H   0  0  0  0  0  0  0  0  0  0  0  0
   10.9983   -2.8612   -0.4414 H   0  0  0  0  0  0  0  0  0  0  0  0
  1  2  1  0  0  0  0
  1 30  1  0  0  0  0
  1 31  1  0  0  0  0
  1 32  1  0  0  0  0
  2  3  1  0  0  0  0
  2 29  2  3  0  0  0
  3  4  2  3  0  0  0
  3 33  1  0  0  0  0
  4  5  1  0  0  0  0
  4 34  1  0  0  0  0
  5  6  1  0  0  0  0
  5 35  1  0  0  0  0
  5 36  1  0  0  0  0
  6  7  1  0  0  0  0
  6 37  1  0  0  0  0
  6 38  1  0  0  0  0
  7  8  1  0  0  0  0
  7 39  1  0  0  0  0
  7 40  1  0  0  0  0
  8  9  1  0  0  0  0
  8 41  1  0  0  0  0
  8 42  1  0  0  0  0
  9 10  1  0  0  0  0
  9 43  1  0  0  0  0
  9 44  1  0  0  0  0
 10 11  1  0  0  0  0
 10 45  1  0  0  0  0
 10 46  1  0  0  0  0
 11 12  1  0  0  0  0
 11 47  1  0  0  0  0
 11 48  1  0  0  0  0
 12 13  1  0  0  0  0
 12 49  1  0  0  0  0
 12 50  1  0  0  0  0
 13 14  1  0  0  0  0
 13 51  1  0  0  0  0
 13 52  1  0  0  0  0
 14 15  2  0  0  0  0
 14 16  1  0  0  0  0
 16 17  2  3  0  0  0
 16 27  1  0  0  0  0
 17 18  1  0  0  0  0
 17 53  1  0  0  0  0
 18 19  1  0  0  0  0
 18 28  2  3  0  0  0
 19 20  1  0  0  0  0
 19 54  1  0  0  0  0
 19 55  1  0  0  0  0
 20 21  1  0  0  0  0
 20 56  1  0  0  0  0
 20 57  1  0  0  0  0
 21 22  1  0  0  0  0
 21 58  1  0  0  0  0
 21 59  1  0  0  0  0
 22 23  1  0  0  0  0
 22 60  1  0  0  0  0
 22 61  1  0  0  0  0
 23 24  1  0  0  0  0
 23 62  1  0  0  0  0
 23 63  1  0  0  0  0
 24 25  1  0  0  0  0
 24 64  1  0  0  0  0
 24 65  1  0  0  0  0
 25 26  1  0  0  0  0
 25 66  1  0  0  0  0
 25 67  1  0  0  0  0
 26 27  1  0  0  0  0
 26 68  1  0  0  0  0
 26 69  1  0  0  0  0
 27 70  1  0  0  0  0
 27 71  1  0  0  0  0
 28 29  1  0  0  0  0
 28 72  1  0  0  0  0
 29 73  1  0  0  0  0
M  END
$$$$
