
 OpenBabel04232217023D

 97 96  0  0  0  0  0  0  0  0999 V2000
   14.8581  -12.3300  -15.5487 O   0  0  0  0  0  0  0  0  0  0  0  0
   16.3025  -12.2025  -15.6701 O   0  0  0  0  0  0  0  0  0  0  0  0
   16.8212  -12.3327  -14.3542 C   0  0  0  0  0  0  0  0  0  0  0  0
   18.3426  -12.2270  -14.3678 C   0  0  0  0  0  0  0  0  0  0  0  0
   18.9230  -12.3545  -13.0035 N   0  0  0  0  0  0  0  0  0  0  0  0
   18.5909  -13.6541  -12.4458 N   0  0  0  0  0  0  0  0  0  0  0  0
   19.1167  -13.8087  -11.1204 N   0  0  0  0  0  0  0  0  0  0  0  0
   18.7699  -15.0837  -10.5606 N   0  0  0  0  0  0  0  0  0  0  0  0
   19.3027  -15.1926   -9.2402 N   0  0  0  0  0  0  0  0  0  0  0  0
   18.7906  -14.1900   -8.4039 N   0  0  0  0  0  0  0  0  0  0  0  0
   19.3143  -14.3354   -7.0998 N   0  0  0  0  0  0  0  0  0  0  0  0
   18.8281  -13.3052   -6.2355 N   0  0  0  0  0  0  0  0  0  0  0  0
   17.4014  -13.3429   -6.0917 N   0  0  0  0  0  0  0  0  0  0  0  0
   16.7994  -12.1387   -5.1222 S   0  0  0  0  0  0  0  0  0  0  0  0
   17.2051  -10.6409   -5.7566 N   0  0  0  0  0  0  0  0  0  0  0  0
   16.5607  -10.4503   -7.2781 S   0  0  0  0  0  0  0  0  0  0  0  0
   17.2302   -8.5907   -7.8390 S   0  0  0  0  0  0  0  0  0  0  0  0
   19.2994   -8.6023   -7.8885 S   0  0  0  0  0  0  0  0  0  0  0  0
   19.9842  -10.0069   -9.2608 S   0  0  0  0  0  0  0  0  0  0  0  0
   22.0934   -9.9915   -9.2269 S   0  0  0  0  0  0  0  0  0  0  0  0
   22.8011  -11.4540  -10.5763 S   0  0  0  0  0  0  0  0  0  0  0  0
   24.9153  -11.4405  -10.5656 S   0  0  0  0  0  0  0  0  0  0  0  0
   25.6133  -12.9070  -11.9182 S   0  0  0  0  0  0  0  0  0  0  0  0
   27.7256  -12.8991  -11.9110 S   0  0  0  0  0  0  0  0  0  0  0  0
   28.4184  -14.3655  -13.2637 S   0  0  0  0  0  0  0  0  0  0  0  0
   30.5294  -14.3571  -13.2560 S   0  0  0  0  0  0  0  0  0  0  0  0
   31.2211  -15.8227  -14.6079 S   0  0  0  0  0  0  0  0  0  0  0  0
   33.3312  -15.8133  -14.5993 S   0  0  0  0  0  0  0  0  0  0  0  0
   34.0224  -17.2786  -15.9510 S   0  0  0  0  0  0  0  0  0  0  0  0
   36.1320  -17.2690  -15.9421 S   0  0  0  0  0  0  0  0  0  0  0  0
   36.8228  -18.7340  -17.2936 S   0  0  0  0  0  0  0  0  0  0  0  0
   38.9322  -18.7243  -17.2847 S   0  0  0  0  0  0  0  0  0  0  0  0
   39.6229  -20.1894  -18.6362 S   0  0  0  0  0  0  0  0  0  0  0  0
   41.7323  -20.1796  -18.6272 S   0  0  0  0  0  0  0  0  0  0  0  0
   42.4229  -21.6446  -19.9786 S   0  0  0  0  0  0  0  0  0  0  0  0
   44.5323  -21.6349  -19.9697 S   0  0  0  0  0  0  0  0  0  0  0  0
   45.2229  -23.0999  -21.3211 S   0  0  0  0  0  0  0  0  0  0  0  0
   47.3323  -23.0902  -21.3121 S   0  0  0  0  0  0  0  0  0  0  0  0
   48.0229  -24.5552  -22.6636 S   0  0  0  0  0  0  0  0  0  0  0  0
   50.1323  -24.5454  -22.6546 S   0  0  0  0  0  0  0  0  0  0  0  0
   50.8229  -26.0104  -24.0060 S   0  0  0  0  0  0  0  0  0  0  0  0
   52.9323  -26.0007  -23.9971 S   0  0  0  0  0  0  0  0  0  0  0  0
   53.6229  -27.4657  -25.3485 S   0  0  0  0  0  0  0  0  0  0  0  0
   55.7323  -27.4560  -25.3395 S   0  0  0  0  0  0  0  0  0  0  0  0
   56.4229  -28.9210  -26.6910 S   0  0  0  0  0  0  0  0  0  0  0  0
   58.5323  -28.9112  -26.6820 S   0  0  0  0  0  0  0  0  0  0  0  0
   59.2229  -30.3762  -28.0334 S   0  0  0  0  0  0  0  0  0  0  0  0
   61.3322  -30.3665  -28.0244 S   0  0  0  0  0  0  0  0  0  0  0  0
   62.0229  -31.8315  -29.3759 S   0  0  0  0  0  0  0  0  0  0  0  0
   64.1322  -31.8218  -29.3669 S   0  0  0  0  0  0  0  0  0  0  0  0
   64.8229  -33.2868  -30.7184 S   0  0  0  0  0  0  0  0  0  0  0  0
   66.9322  -33.2770  -30.7094 S   0  0  0  0  0  0  0  0  0  0  0  0
   67.6229  -34.7420  -32.0608 S   0  0  0  0  0  0  0  0  0  0  0  0
   69.7322  -34.7323  -32.0518 S   0  0  0  0  0  0  0  0  0  0  0  0
   70.4228  -36.1973  -33.4033 S   0  0  0  0  0  0  0  0  0  0  0  0
   72.5322  -36.1876  -33.3943 S   0  0  0  0  0  0  0  0  0  0  0  0
   73.2228  -37.6526  -34.7457 S   0  0  0  0  0  0  0  0  0  0  0  0
   75.3322  -37.6428  -34.7368 S   0  0  0  0  0  0  0  0  0  0  0  0
   76.0228  -39.1078  -36.0882 S   0  0  0  0  0  0  0  0  0  0  0  0
   78.1322  -39.0981  -36.0792 S   0  0  0  0  0  0  0  0  0  0  0  0
   78.8228  -40.5631  -37.4307 S   0  0  0  0  0  0  0  0  0  0  0  0
   80.9322  -40.5534  -37.4217 S   0  0  0  0  0  0  0  0  0  0  0  0
   81.6228  -42.0184  -38.7731 S   0  0  0  0  0  0  0  0  0  0  0  0
   83.7322  -42.0086  -38.7641 S   0  0  0  0  0  0  0  0  0  0  0  0
   84.4228  -43.4736  -40.1156 S   0  0  0  0  0  0  0  0  0  0  0  0
   86.5321  -43.4638  -40.1066 S   0  0  0  0  0  0  0  0  0  0  0  0
   87.2226  -44.9288  -41.4580 S   0  0  0  0  0  0  0  0  0  0  0  0
   89.3317  -44.9189  -41.4488 S   0  0  0  0  0  0  0  0  0  0  0  0
   90.0218  -46.3837  -42.8001 S   0  0  0  0  0  0  0  0  0  0  0  0
   92.1303  -46.3735  -42.7907 S   0  0  0  0  0  0  0  0  0  0  0  0
   92.8193  -47.8378  -44.1414 S   0  0  0  0  0  0  0  0  0  0  0  0
   94.9262  -47.8266  -44.1312 S   0  0  0  0  0  0  0  0  0  0  0  0
   95.6124  -49.2897  -45.4808 S   0  0  0  0  0  0  0  0  0  0  0  0
   97.7155  -49.2757  -45.4680 S   0  0  0  0  0  0  0  0  0  0  0  0
   98.3966  -50.7360  -46.8149 S   0  0  0  0  0  0  0  0  0  0  0  0
  100.4924  -50.7161  -46.7970 S   0  0  0  0  0  0  0  0  0  0  0  0
  101.1604  -52.1719  -48.1397 S   0  0  0  0  0  0  0  0  0  0  0  0
  103.2404  -52.1565  -48.0984 S   0  0  0  0  0  0  0  0  0  0  0  0
  103.8935  -53.5668  -49.4711 S   0  0  0  0  0  0  0  0  0  0  0  0
  105.9617  -53.5555  -49.4039 S   0  0  0  0  0  0  0  0  0  0  0  0
  106.5316  -51.6862  -50.0402 S   0  0  0  0  0  0  0  0  0  0  0  0
   14.6508  -12.1553  -16.4567 H   0  0  0  0  0  0  0  0  0  0  0  0
   16.5161  -13.3108  -13.9574 H   0  0  0  0  0  0  0  0  0  0  0  0
   16.3907  -11.5464  -13.7156 H   0  0  0  0  0  0  0  0  0  0  0  0
   18.6215  -11.2518  -14.7959 H   0  0  0  0  0  0  0  0  0  0  0  0
   18.7697  -12.9702  -15.0509 H   0  0  0  0  0  0  0  0  0  0  0  0
   18.5039  -11.6063  -12.4430 H   0  0  0  0  0  0  0  0  0  0  0  0
   18.9956  -14.4008  -12.9991 H   0  0  0  0  0  0  0  0  0  0  0  0
   18.7318  -13.1284  -10.4706 H   0  0  0  0  0  0  0  0  0  0  0  0
   19.1610  -15.8180  -11.1346 H   0  0  0  0  0  0  0  0  0  0  0  0
   20.3152  -15.1222   -9.2807 H   0  0  0  0  0  0  0  0  0  0  0  0
   17.7792  -14.2852   -8.3651 H   0  0  0  0  0  0  0  0  0  0  0  0
   20.3318  -14.2491   -7.1704 H   0  0  0  0  0  0  0  0  0  0  0  0
   19.0804  -12.4188   -6.6591 H   0  0  0  0  0  0  0  0  0  0  0  0
   17.1618  -14.2830   -5.7736 H   0  0  0  0  0  0  0  0  0  0  0  0
   18.2267  -10.5934   -5.8031 H   0  0  0  0  0  0  0  0  0  0  0  0
  107.8709  -51.7821  -49.9691 H   0  0  0  0  0  0  0  0  0  0  0  0
  1  2  1  0  0  0  0
  1 82  1  0  0  0  0
  2  3  1  0  0  0  0
  3  4  1  0  0  0  0
  3 83  1  0  0  0  0
  3 84  1  0  0  0  0
  4  5  1  0  0  0  0
  4 85  1  0  0  0  0
  4 86  1  0  0  0  0
  5  6  1  0  0  0  0
  5 87  1  0  0  0  0
  6  7  1  0  0  0  0
  6 88  1  0  0  0  0
  7  8  1  0  0  0  0
  7 89  1  0  0  0  0
  8  9  1  0  0  0  0
  8 90  1  0  0  0  0
  9 10  1  0  0  0  0
  9 91  1  0  0  0  0
 10 11  1  0  0  0  0
 10 92  1  0  0  0  0
 11 12  1  0  0  0  0
 11 93  1  0  0  0  0
 12 13  1  0  0  0  0
 12 94  1  0  0  0  0
 13 14  1  0  0  0  0
 13 95  1  0  0  0  0
 14 15  1  0  0  0  0
 15 16  1  0  0  0  0
 15 96  1  0  0  0  0
 16 17  1  0  0  0  0
 17 18  1  0  0  0  0
 18 19  1  0  0  0  0
 19 20  1  0  0  0  0
 20 21  1  0  0  0  0
 21 22  1  0  0  0  0
 22 23  1  0  0  0  0
 23 24  1  0  0  0  0
 24 25  1  0  0  0  0
 25 26  1  0  0  0  0
 26 27  1  0  0  0  0
 27 28  1  0  0  0  0
 28 29  1  0  0  0  0
 29 30  1  0  0  0  0
 30 31  1  0  0  0  0
 31 32  1  0  0  0  0
 32 33  1  0  0  0  0
 33 34  1  0  0  0  0
 34 35  1  0  0  0  0
 35 36  1  0  0  0  0
 36 37  1  0  0  0  0
 37 38  1  0  0  0  0
 38 39  1  0  0  0  0
 39 40  1  0  0  0  0
 40 41  1  0  0  0  0
 41 42  1  0  0  0  0
 42 43  1  0  0  0  0
 43 44  1  0  0  0  0
 44 45  1  0  0  0  0
 45 46  1  0  0  0  0
 46 47  1  0  0  0  0
 47 48  1  0  0  0  0
 48 49  1  0  0  0  0
 49 50  1  0  0  0  0
 50 51  1  0  0  0  0
 51 52  1  0  0  0  0
 52 53  1  0  0  0  0
 53 54  1  0  0  0  0
 54 55  1  0  0  0  0
 55 56  1  0  0  0  0
 56 57  1  0  0  0  0
 57 58  1  0  0  0  0
 58 59  1  0  0  0  0
 59 60  1  0  0  0  0
 60 61  1  0  0  0  0
 61 62  1  0  0  0  0
 62 63  1  0  0  0  0
 63 64  1  0  0  0  0
 64 65  1  0  0  0  0
 65 66  1  0  0  0  0
 66 67  1  0  0  0  0
 67 68  1  0  0  0  0
 68 69  1  0  0  0  0
 69 70  1  0  0  0  0
 70 71  1  0  0  0  0
 71 72  1  0  0  0  0
 72 73  1  0  0  0  0
 73 74  1  0  0  0  0
 74 75  1  0  0  0  0
 75 76  1  0  0  0  0
 76 77  1  0  0  0  0
 77 78  1  0  0  0  0
 78 79  1  0  0  0  0
 79 80  1  0  0  0  0
 80 81  1  0  0  0  0
 81 97  1  0  0  0  0
M  END
$$$$
