
 OpenBabel04232216473D

 48 51  0  0  0  0  0  0  0  0999 V2000
   -3.4612   -0.6362   -0.3840 C   0  0  0  0  0  0  0  0  0  0  0  0
   -2.0970   -0.0554   -0.1585 C   0  0  0  0  0  0  0  0  0  0  0  0
   -1.9007    1.3198   -0.1042 C   0  0  0  0  0  0  0  0  0  0  0  0
   -0.6153    1.8379    0.1048 C   0  0  0  0  0  0  0  0  0  0  0  0
   -0.3793    3.2293    0.2210 N   0  0  0  0  0  0  0  0  0  0  0  0
   -1.4881    4.1890    0.1313 C   0  0  0  0  0  0  0  0  0  0  0  0
   -1.0121    5.6338    0.3267 C   0  0  0  0  0  0  0  0  0  0  0  0
   -2.2334    6.5421    0.3265 C   0  0  0  0  0  0  0  0  0  0  0  0
   -3.1521    6.3399    1.1215 O   0  0  0  0  0  0  0  0  0  0  0  0
   -2.3296    7.5000   -0.6778 N   0  0  0  0  0  0  0  0  0  0  0  0
   -3.4325    8.4780   -0.6280 C   0  0  0  0  0  0  0  0  0  0  0  0
   -2.4960    9.3029   -1.4800 C   0  0  0  0  0  0  0  0  0  0  0  0
   -1.3625    8.5493   -0.8616 N   0  0  0  0  0  0  0  0  0  0  0  0
   -0.3581    8.2872   -1.9191 C   0  0  0  0  0  0  0  0  0  0  0  0
    0.1282    9.5761   -2.5513 C   0  0  0  0  0  0  0  0  0  0  0  0
    0.7132   10.6741   -1.9457 C   0  0  0  0  0  0  0  0  0  0  0  0
    0.8393   11.7810   -2.8366 C   0  0  0  0  0  0  0  0  0  0  0  0
    0.4178   11.4699   -4.1094 C   0  0  0  0  0  0  0  0  0  0  0  0
   -0.1041    9.8475   -4.2323 S   0  0  0  0  0  0  0  0  0  0  0  0
    0.4457    0.9024    0.3031 C   0  0  0  0  0  0  0  0  0  0  0  0
    1.7885    1.2659    0.5720 C   0  0  0  0  0  0  0  0  0  0  0  0
    2.7827    0.3040    0.7852 C   0  0  0  0  0  0  0  0  0  0  0  0
    2.4531   -1.0414    0.7372 C   0  0  0  0  0  0  0  0  0  0  0  0
    1.1353   -1.4168    0.4747 C   0  0  0  0  0  0  0  0  0  0  0  0
    0.1356   -0.4785    0.2520 C   0  0  0  0  0  0  0  0  0  0  0  0
   -1.0964   -0.9408    0.0160 N   0  0  0  0  0  0  0  0  0  0  0  0
   -4.2038    0.1386   -0.6051 H   0  0  0  0  0  0  0  0  0  0  0  0
   -3.7846   -1.1791    0.5096 H   0  0  0  0  0  0  0  0  0  0  0  0
   -3.4350   -1.3311   -1.2293 H   0  0  0  0  0  0  0  0  0  0  0  0
   -2.7566    1.9698   -0.2444 H   0  0  0  0  0  0  0  0  0  0  0  0
    0.4608    3.5033   -0.2812 H   0  0  0  0  0  0  0  0  0  0  0  0
   -2.2297    3.9472    0.9033 H   0  0  0  0  0  0  0  0  0  0  0  0
   -1.9794    4.1063   -0.8462 H   0  0  0  0  0  0  0  0  0  0  0  0
   -0.2996    5.9056   -0.4536 H   0  0  0  0  0  0  0  0  0  0  0  0
   -0.5095    5.7492    1.2936 H   0  0  0  0  0  0  0  0  0  0  0  0
   -3.6302    8.8845    0.3693 H   0  0  0  0  0  0  0  0  0  0  0  0
   -4.3532    8.1496   -1.1128 H   0  0  0  0  0  0  0  0  0  0  0  0
   -2.5043   10.3802   -1.2816 H   0  0  0  0  0  0  0  0  0  0  0  0
   -2.6651    9.1452   -2.5556 H   0  0  0  0  0  0  0  0  0  0  0  0
   -0.7533    7.6043   -2.6823 H   0  0  0  0  0  0  0  0  0  0  0  0
    0.5061    7.7902   -1.4630 H   0  0  0  0  0  0  0  0  0  0  0  0
    0.9677   10.7090   -0.8927 H   0  0  0  0  0  0  0  0  0  0  0  0
    1.2044   12.7612   -2.5544 H   0  0  0  0  0  0  0  0  0  0  0  0
    0.3917   12.1167   -4.9761 H   0  0  0  0  0  0  0  0  0  0  0  0
    2.0719    2.3145    0.6378 H   0  0  0  0  0  0  0  0  0  0  0  0
    3.8034    0.6067    0.9926 H   0  0  0  0  0  0  0  0  0  0  0  0
    3.2068   -1.8051    0.9160 H   0  0  0  0  0  0  0  0  0  0  0  0
    0.8756   -2.4713    0.4492 H   0  0  0  0  0  0  0  0  0  0  0  0
  1  2  1  0  0  0  0
  1 27  1  0  0  0  0
  1 28  1  0  0  0  0
  1 29  1  0  0  0  0
  2  3  1  0  0  0  0
  2 26  2  0  0  0  0
  3  4  2  0  0  0  0
  3 30  1  0  0  0  0
  4  5  1  0  0  0  0
  4 20  1  0  0  0  0
  5  6  1  0  0  0  0
  5 31  1  0  0  0  0
  6  7  1  0  0  0  0
  6 32  1  0  0  0  0
  6 33  1  0  0  0  0
  7  8  1  0  0  0  0
  7 34  1  0  0  0  0
  7 35  1  0  0  0  0
  8  9  2  0  0  0  0
  8 10  1  0  0  0  0
 10 11  1  0  0  0  0
 10 13  1  0  0  0  0
 11 12  1  0  0  0  0
 11 36  1  0  0  0  0
 11 37  1  0  0  0  0
 12 13  1  0  0  0  0
 12 38  1  0  0  0  0
 12 39  1  0  0  0  0
 13 14  1  0  0  0  0
 14 15  1  0  0  0  0
 14 40  1  0  0  0  0
 14 41  1  0  0  0  0
 15 16  2  0  0  0  0
 15 19  1  0  0  0  0
 16 17  1  0  0  0  0
 16 42  1  0  0  0  0
 17 18  2  0  0  0  0
 17 43  1  0  0  0  0
 18 19  1  0  0  0  0
 18 44  1  0  0  0  0
 20 21  1  0  0  0  0
 20 25  2  0  0  0  0
 21 22  2  0  0  0  0
 21 45  1  0  0  0  0
 22 23  1  0  0  0  0
 22 46  1  0  0  0  0
 23 24  2  0  0  0  0
 23 47  1  0  0  0  0
 24 25  1  0  0  0  0
 24 48  1  0  0  0  0
 25 26  1  0  0  0  0
M  END
$$$$
