
 OpenBabel04232216523D

 53 54  0  0  1  0  0  0  0  0999 V2000
    2.1333   -1.6309   -2.1253 C   0  0  0  0  0  0  0  0  0  0  0  0
    2.9108   -0.8171   -1.1031 C   0  0  0  0  0  0  0  0  0  0  0  0
    3.4989   -1.7178   -0.0169 C   0  0  0  0  0  0  0  0  0  0  0  0
    4.3212   -0.9115    0.9985 C   0  0  0  0  0  0  0  0  0  0  0  0
    5.0351   -1.7708    2.0735 C   0  0  3  0  0  0  0  0  0  0  0  0
    5.8176   -0.8452    3.0496 C   0  0  0  0  0  0  0  0  0  0  0  0
    7.2763   -1.2931    3.3649 C   0  0  3  0  0  0  0  0  0  0  0  0
    7.2334   -2.3805    4.4825 C   0  0  0  0  0  0  0  0  0  0  0  0
    8.6071   -2.8730    4.9141 C   0  0  0  0  0  0  0  0  0  0  0  0
    8.6320   -3.8552    6.0737 C   0  0  0  0  0  0  0  0  0  0  0  0
   10.0910   -4.2701    6.3116 C   0  0  0  0  0  0  0  0  0  0  0  0
   10.2148   -5.3238    7.3936 C   0  0  0  0  0  0  0  0  0  0  0  0
   11.6489   -5.7253    7.6388 C   0  0  0  0  0  0  0  0  0  0  0  0
   12.6152   -5.2700    7.0310 O   0  0  0  0  0  0  0  0  0  0  0  0
    8.0113   -1.6664    2.0284 C   0  0  3  0  0  0  0  0  0  0  0  0
    8.0382   -0.5238    1.1440 N   0  0  0  0  0  0  0  0  0  0  0  0
    9.2843   -0.1162    0.7506 C   0  0  0  0  0  0  0  0  0  0  0  0
    9.5221    0.9019    0.1279 O   0  0  0  0  0  0  0  0  0  0  0  0
   10.2818   -1.1396    1.1812 C   0  0  0  0  0  0  0  0  0  0  0  0
    9.5098   -1.9971    2.1740 C   0  0  0  0  0  0  0  0  0  0  0  0
    7.2298   -2.7513    1.3394 C   0  0  0  0  0  0  0  0  0  0  0  0
    5.8905   -2.8199    1.4105 C   0  0  0  0  0  0  0  0  0  0  0  0
    1.7230   -0.9761   -2.8999 H   0  0  0  0  0  0  0  0  0  0  0  0
    1.3021   -2.1627   -1.6510 H   0  0  0  0  0  0  0  0  0  0  0  0
    2.7790   -2.3694   -2.6129 H   0  0  0  0  0  0  0  0  0  0  0  0
    2.2523   -0.0660   -0.6536 H   0  0  0  0  0  0  0  0  0  0  0  0
    3.7172   -0.2791   -1.6159 H   0  0  0  0  0  0  0  0  0  0  0  0
    4.1265   -2.4679   -0.5095 H   0  0  0  0  0  0  0  0  0  0  0  0
    2.6977   -2.2539    0.5042 H   0  0  0  0  0  0  0  0  0  0  0  0
    3.6642   -0.1861    1.4928 H   0  0  0  0  0  0  0  0  0  0  0  0
    5.0699   -0.3261    0.4468 H   0  0  0  0  0  0  0  0  0  0  0  0
    4.2683   -2.2933    2.6609 H   0  0  0  0  0  0  0  0  0  0  0  0
    5.2457   -0.7494    3.9824 H   0  0  0  0  0  0  0  0  0  0  0  0
    5.8524    0.1770    2.6485 H   0  0  0  0  0  0  0  0  0  0  0  0
    7.7872   -0.4188    3.7967 H   0  0  0  0  0  0  0  0  0  0  0  0
    6.6242   -3.2372    4.1688 H   0  0  0  0  0  0  0  0  0  0  0  0
    6.7312   -1.9520    5.3595 H   0  0  0  0  0  0  0  0  0  0  0  0
    9.2353   -2.0107    5.1734 H   0  0  0  0  0  0  0  0  0  0  0  0
    9.0595   -3.4092    4.0799 H   0  0  0  0  0  0  0  0  0  0  0  0
    8.0294   -4.7351    5.8234 H   0  0  0  0  0  0  0  0  0  0  0  0
    8.2114   -3.3996    6.9754 H   0  0  0  0  0  0  0  0  0  0  0  0
   10.6854   -3.3848    6.5767 H   0  0  0  0  0  0  0  0  0  0  0  0
   10.5230   -4.6551    5.3762 H   0  0  0  0  0  0  0  0  0  0  0  0
    9.6609   -6.2262    7.1088 H   0  0  0  0  0  0  0  0  0  0  0  0
    9.8050   -4.9489    8.3372 H   0  0  0  0  0  0  0  0  0  0  0  0
   11.7903   -6.4855    8.4248 H   0  0  0  0  0  0  0  0  0  0  0  0
    7.2327    0.0308    0.8926 H   0  0  0  0  0  0  0  0  0  0  0  0
   11.1362   -0.6605    1.6702 H   0  0  0  0  0  0  0  0  0  0  0  0
   10.6186   -1.7183    0.3185 H   0  0  0  0  0  0  0  0  0  0  0  0
    9.8946   -1.7127    3.1552 H   0  0  0  0  0  0  0  0  0  0  0  0
    9.7391   -3.0587    2.0203 H   0  0  0  0  0  0  0  0  0  0  0  0
    7.7661   -3.5300    0.8046 H   0  0  0  0  0  0  0  0  0  0  0  0
    5.3781   -3.6621    0.9405 H   0  0  0  0  0  0  0  0  0  0  0  0
  1  2  1  0  0  0  0
  1 23  1  0  0  0  0
  1 24  1  0  0  0  0
  1 25  1  0  0  0  0
  2  3  1  0  0  0  0
  2 26  1  0  0  0  0
  2 27  1  0  0  0  0
  3  4  1  0  0  0  0
  3 28  1  0  0  0  0
  3 29  1  0  0  0  0
  4  5  1  0  0  0  0
  4 30  1  0  0  0  0
  4 31  1  0  0  0  0
  5  6  1  0  0  0  0
  5 22  1  0  0  0  0
  5 32  1  0  0  0  0
  6  7  1  0  0  0  0
  6 33  1  0  0  0  0
  6 34  1  0  0  0  0
  7  8  1  0  0  0  0
  7 15  1  0  0  0  0
  7 35  1  0  0  0  0
  8  9  1  0  0  0  0
  8 36  1  0  0  0  0
  8 37  1  0  0  0  0
  9 10  1  0  0  0  0
  9 38  1  0  0  0  0
  9 39  1  0  0  0  0
 10 11  1  0  0  0  0
 10 40  1  0  0  0  0
 10 41  1  0  0  0  0
 11 12  1  0  0  0  0
 11 42  1  0  0  0  0
 11 43  1  0  0  0  0
 12 13  1  0  0  0  0
 12 44  1  0  0  0  0
 12 45  1  0  0  0  0
 13 14  2  0  0  0  0
 13 46  1  0  0  0  0
 15 16  1  0  0  0  0
 15 20  1  0  0  0  0
 15 21  1  0  0  0  0
 16 17  1  0  0  0  0
 16 47  1  0  0  0  0
 17 18  2  0  0  0  0
 17 19  1  0  0  0  0
 19 20  1  0  0  0  0
 19 48  1  0  0  0  0
 19 49  1  0  0  0  0
 20 50  1  0  0  0  0
 20 51  1  0  0  0  0
 21 22  2  0  0  0  0
 21 52  1  0  0  0  0
 22 53  1  0  0  0  0
M  END
$$$$
