
 OpenBabel04232216443D

 79 79  0  0  1  0  0  0  0  0999 V2000
    0.9192    0.1050   -0.4212 C   0  0  0  0  0  0  0  0  0  0  0  0
    2.4042    0.1229   -0.0263 C   0  0  3  0  0  0  0  0  0  0  0  0
    2.8780    1.4150    0.6752 C   0  0  3  0  0  3  0  0  0  0  0  0
    4.1567    2.0302    0.1246 C   0  0  0  0  0  0  0  0  0  0  0  0
    5.3810    1.1223    0.1221 C   0  0  0  0  0  0  0  0  0  0  0  0
    1.8118    2.3666    1.1929 C   0  0  0  0  0  0  0  0  0  0  0  0
    2.1899    3.5574    2.0936 C   0  0  0  0  0  0  0  0  0  0  0  0
    2.3565    3.2864    3.5930 C   0  0  0  0  0  0  0  0  0  0  0  0
    1.2440    2.4331    4.2034 C   0  0  0  0  0  0  0  0  0  0  0  0
    1.2306    2.5193    5.7340 C   0  0  0  0  0  0  0  0  0  0  0  0
    0.4669    1.3553    6.3582 C   0  0  0  0  0  0  0  0  0  0  0  0
    1.3043    0.0940    6.3264 C   0  0  0  0  0  0  0  0  0  0  0  0
    2.4264    0.0625    6.8324 O   0  0  0  0  0  0  0  0  0  0  0  0
    0.6718   -1.1245    5.6750 C   0  0  0  0  0  0  0  0  0  0  0  0
    1.6534   -2.2661    5.4456 C   0  0  0  0  0  0  0  0  0  0  0  0
    1.5448   -2.8076    4.0191 C   0  0  0  0  0  0  0  0  0  0  0  0
    2.4679   -2.1309    2.9956 C   0  0  0  0  0  0  0  0  0  0  0  0
    1.8831   -1.9700    1.5613 C   0  0  3  0  0  0  0  0  0  0  0  0
    1.5377   -3.3119    0.8384 C   0  0  0  0  0  0  0  0  0  0  0  0
    0.4057   -4.0859    1.5017 C   0  0  0  0  0  0  0  0  0  0  0  0
   -0.0168   -5.3886    0.8394 C   0  0  0  0  0  0  0  0  0  0  0  0
   -1.0556   -6.0508    1.7572 C   0  0  0  0  0  0  0  0  0  0  0  0
   -1.5084   -7.3982    1.2238 C   0  0  0  0  0  0  0  0  0  0  0  0
   -2.5582   -8.0276    2.1408 C   0  0  0  0  0  0  0  0  0  0  0  0
   -3.0068   -9.3649    1.5635 C   0  0  0  0  0  0  0  0  0  0  0  0
   -4.0714  -10.0352    2.4246 C   0  0  0  0  0  0  0  0  0  0  0  0
   -4.4976  -11.3576    1.8105 C   0  0  0  0  0  0  0  0  0  0  0  0
    2.8971   -1.1681    0.6879 C   0  0  0  0  0  0  0  0  0  0  0  0
    0.6728    0.9762   -1.0370 H   0  0  0  0  0  0  0  0  0  0  0  0
    0.2486    0.1235    0.4431 H   0  0  0  0  0  0  0  0  0  0  0  0
    0.6858   -0.7844   -1.0120 H   0  0  0  0  0  0  0  0  0  0  0  0
    2.9221    0.1260   -0.9976 H   0  0  0  0  0  0  0  0  0  0  0  0
    4.4326    2.9209    0.6913 H   0  0  0  0  0  0  0  0  0  0  0  0
    3.9615    2.3650   -0.9035 H   0  0  0  0  0  0  0  0  0  0  0  0
    5.6586    0.8363    1.1411 H   0  0  0  0  0  0  0  0  0  0  0  0
    6.2331    1.6505   -0.3206 H   0  0  0  0  0  0  0  0  0  0  0  0
    5.2246    0.2126   -0.4652 H   0  0  0  0  0  0  0  0  0  0  0  0
    1.0371    1.7827    1.6956 H   0  0  0  0  0  0  0  0  0  0  0  0
    1.3345    2.8013    0.3052 H   0  0  0  0  0  0  0  0  0  0  0  0
    1.3822    4.2949    1.9943 H   0  0  0  0  0  0  0  0  0  0  0  0
    3.0842    4.0717    1.7300 H   0  0  0  0  0  0  0  0  0  0  0  0
    2.3854    4.2590    4.1028 H   0  0  0  0  0  0  0  0  0  0  0  0
    3.3249    2.8083    3.7806 H   0  0  0  0  0  0  0  0  0  0  0  0
    1.3892    1.3948    3.8869 H   0  0  0  0  0  0  0  0  0  0  0  0
    0.2650    2.7550    3.8269 H   0  0  0  0  0  0  0  0  0  0  0  0
    0.7505    3.4603    6.0303 H   0  0  0  0  0  0  0  0  0  0  0  0
    2.2564    2.5500    6.1204 H   0  0  0  0  0  0  0  0  0  0  0  0
   -0.4863    1.1929    5.8417 H   0  0  0  0  0  0  0  0  0  0  0  0
    0.2388    1.5584    7.4082 H   0  0  0  0  0  0  0  0  0  0  0  0
    0.2184   -0.7905    4.7376 H   0  0  0  0  0  0  0  0  0  0  0  0
   -0.1401   -1.4563    6.3404 H   0  0  0  0  0  0  0  0  0  0  0  0
    1.3733   -3.0850    6.1274 H   0  0  0  0  0  0  0  0  0  0  0  0
    2.6942   -2.0213    5.6697 H   0  0  0  0  0  0  0  0  0  0  0  0
    0.4972   -2.7335    3.7124 H   0  0  0  0  0  0  0  0  0  0  0  0
    1.8176   -3.8693    4.0655 H   0  0  0  0  0  0  0  0  0  0  0  0
    3.4027   -2.7047    2.9383 H   0  0  0  0  0  0  0  0  0  0  0  0
    2.7371   -1.1326    3.3635 H   0  0  0  0  0  0  0  0  0  0  0  0
    0.9574   -1.4018    1.6784 H   0  0  0  0  0  0  0  0  0  0  0  0
    2.4335   -3.9430    0.7819 H   0  0  0  0  0  0  0  0  0  0  0  0
    1.2398   -3.0926   -0.1954 H   0  0  0  0  0  0  0  0  0  0  0  0
   -0.4672   -3.4317    1.6160 H   0  0  0  0  0  0  0  0  0  0  0  0
    0.7287   -4.3982    2.4886 H   0  0  0  0  0  0  0  0  0  0  0  0
    0.8505   -6.0487    0.7248 H   0  0  0  0  0  0  0  0  0  0  0  0
   -0.4371   -5.2038   -0.1531 H   0  0  0  0  0  0  0  0  0  0  0  0
   -1.9198   -5.3851    1.8730 H   0  0  0  0  0  0  0  0  0  0  0  0
   -0.6296   -6.1898    2.7609 H   0  0  0  0  0  0  0  0  0  0  0  0
   -0.6450   -8.0671    1.1421 H   0  0  0  0  0  0  0  0  0  0  0  0
   -1.9241   -7.2703    0.2190 H   0  0  0  0  0  0  0  0  0  0  0  0
   -3.4191   -7.3546    2.2431 H   0  0  0  0  0  0  0  0  0  0  0  0
   -2.1417   -8.1727    3.1462 H   0  0  0  0  0  0  0  0  0  0  0  0
   -2.1388  -10.0291    1.4713 H   0  0  0  0  0  0  0  0  0  0  0  0
   -3.4014   -9.2075    0.5525 H   0  0  0  0  0  0  0  0  0  0  0  0
   -4.9454   -9.3796    2.5196 H   0  0  0  0  0  0  0  0  0  0  0  0
   -3.6832  -10.2099    3.4352 H   0  0  0  0  0  0  0  0  0  0  0  0
   -4.9094  -11.2056    0.8059 H   0  0  0  0  0  0  0  0  0  0  0  0
   -5.2614  -11.8375    2.4251 H   0  0  0  0  0  0  0  0  0  0  0  0
   -3.6431  -12.0411    1.7265 H   0  0  0  0  0  0  0  0  0  0  0  0
    3.2743   -1.8352   -0.1026 H   0  0  0  0  0  0  0  0  0  0  0  0
    3.7883   -0.9302    1.2798 H   0  0  0  0  0  0  0  0  0  0  0  0
  1  2  1  0  0  0  0
  1 29  1  0  0  0  0
  1 30  1  0  0  0  0
  1 31  1  0  0  0  0
  2  3  1  0  0  0  0
  2 28  1  0  0  0  0
  2 32  1  0  0  0  0
  3  4  1  0  0  0  0
  3  6  1  0  0  0  0
  4  5  1  0  0  0  0
  4 33  1  0  0  0  0
  4 34  1  0  0  0  0
  5 35  1  0  0  0  0
  5 36  1  0  0  0  0
  5 37  1  0  0  0  0
  6  7  1  0  0  0  0
  6 38  1  0  0  0  0
  6 39  1  0  0  0  0
  7  8  1  0  0  0  0
  7 40  1  0  0  0  0
  7 41  1  0  0  0  0
  8  9  1  0  0  0  0
  8 42  1  0  0  0  0
  8 43  1  0  0  0  0
  9 10  1  0  0  0  0
  9 44  1  0  0  0  0
  9 45  1  0  0  0  0
 10 11  1  0  0  0  0
 10 46  1  0  0  0  0
 10 47  1  0  0  0  0
 11 12  1  0  0  0  0
 11 48  1  0  0  0  0
 11 49  1  0  0  0  0
 12 13  2  0  0  0  0
 12 14  1  0  0  0  0
 14 15  1  0  0  0  0
 14 50  1  0  0  0  0
 14 51  1  0  0  0  0
 15 16  1  0  0  0  0
 15 52  1  0  0  0  0
 15 53  1  0  0  0  0
 16 17  1  0  0  0  0
 16 54  1  0  0  0  0
 16 55  1  0  0  0  0
 17 18  1  0  0  0  0
 17 56  1  0  0  0  0
 17 57  1  0  0  0  0
 18 19  1  0  0  0  0
 18 28  1  0  0  0  0
 18 58  1  0  0  0  0
 19 20  1  0  0  0  0
 19 59  1  0  0  0  0
 19 60  1  0  0  0  0
 20 21  1  0  0  0  0
 20 61  1  0  0  0  0
 20 62  1  0  0  0  0
 21 22  1  0  0  0  0
 21 63  1  0  0  0  0
 21 64  1  0  0  0  0
 22 23  1  0  0  0  0
 22 65  1  0  0  0  0
 22 66  1  0  0  0  0
 23 24  1  0  0  0  0
 23 67  1  0  0  0  0
 23 68  1  0  0  0  0
 24 25  1  0  0  0  0
 24 69  1  0  0  0  0
 24 70  1  0  0  0  0
 25 26  1  0  0  0  0
 25 71  1  0  0  0  0
 25 72  1  0  0  0  0
 26 27  1  0  0  0  0
 26 73  1  0  0  0  0
 26 74  1  0  0  0  0
 27 75  1  0  0  0  0
 27 76  1  0  0  0  0
 27 77  1  0  0  0  0
 28 78  1  0  0  0  0
 28 79  1  0  0  0  0
M  END
$$$$
