
 OpenBabel04232216453D

 57 59  0  0  1  0  0  0  0  0999 V2000
   -2.9527    1.9844   -2.6748 C   0  0  0  0  0  0  0  0  0  0  0  0
   -1.9648    0.9361   -2.2577 C   0  0  0  0  0  0  0  0  0  0  0  0
   -2.3115   -0.0646   -1.3482 C   0  0  0  0  0  0  0  0  0  0  0  0
   -1.3902   -1.0824   -1.0306 C   0  0  0  0  0  0  0  0  0  0  0  0
   -1.7934   -2.2278   -0.0929 C   0  0  3  0  0  0  0  0  0  0  0  0
   -0.8887   -3.5293   -0.2321 C   0  0  0  0  0  0  0  0  0  0  0  0
    0.2471   -4.0071    0.7787 C   0  0  0  0  0  0  0  0  0  0  0  0
    1.6275   -3.2708    0.9986 C   0  0  0  0  0  0  0  0  0  0  0  0
    2.2111   -3.0970    2.5086 C   0  0  0  0  0  0  0  0  0  0  0  0
    2.9546   -1.6954    2.9314 C   0  0  3  0  0  0  0  0  0  0  0  0
    2.6067   -0.5539    1.9866 C   0  0  0  0  0  0  0  0  0  0  0  0
    1.1296   -0.1461    1.9535 C   0  0  0  0  0  0  0  0  0  0  0  0
    0.2007   -0.9443    2.8678 C   0  0  0  0  0  0  0  0  0  0  0  0
   -1.1810   -0.3316    3.0418 C   0  0  0  0  0  0  0  0  0  0  0  0
   -1.5410    0.4071    4.1227 C   0  0  0  0  0  0  0  0  0  0  0  0
   -0.6513    0.4226    5.2559 C   0  0  0  0  0  0  0  0  0  0  0  0
   -0.0610    1.4240    5.9497 C   0  0  0  0  0  0  0  0  0  0  0  0
    1.3150    0.9825    6.2820 C   0  0  0  0  0  0  0  0  0  0  0  0
    2.1825    0.9855    5.2481 C   0  0  0  0  0  0  0  0  0  0  0  0
    3.1493   -1.2450    4.4585 C   0  0  0  0  0  0  0  0  0  0  0  0
    3.2404   -0.0006    5.0161 C   0  0  0  0  0  0  0  0  0  0  0  0
    4.7449    0.4214    5.8060 Cl  0  0  0  0  0  0  0  0  0  0  0  0
   -1.9895   -1.8402    1.3571 C   0  0  0  0  0  0  0  0  0  0  0  0
   -2.0209   -0.5944    1.8757 C   0  0  0  0  0  0  0  0  0  0  0  0
   -0.1398   -1.0141   -1.6467 C   0  0  0  0  0  0  0  0  0  0  0  0
    0.1293    0.0194   -2.5300 C   0  0  0  0  0  0  0  0  0  0  0  0
   -0.7510    0.9881   -2.8493 N   0  0  0  0  0  0  0  0  0  0  0  0
   -3.9091    1.8762   -2.1542 H   0  0  0  0  0  0  0  0  0  0  0  0
   -3.1416    1.8981   -3.7502 H   0  0  0  0  0  0  0  0  0  0  0  0
   -2.5590    2.9840   -2.4660 H   0  0  0  0  0  0  0  0  0  0  0  0
   -3.2961   -0.0499   -0.8874 H   0  0  0  0  0  0  0  0  0  0  0  0
   -2.7875   -2.5360   -0.4568 H   0  0  0  0  0  0  0  0  0  0  0  0
   -0.5184   -3.6152   -1.2630 H   0  0  0  0  0  0  0  0  0  0  0  0
   -1.6271   -4.3495   -0.1785 H   0  0  0  0  0  0  0  0  0  0  0  0
    0.5310   -4.9802    0.3416 H   0  0  0  0  0  0  0  0  0  0  0  0
   -0.2085   -4.2705    1.7370 H   0  0  0  0  0  0  0  0  0  0  0  0
    1.6291   -2.3438    0.4358 H   0  0  0  0  0  0  0  0  0  0  0  0
    2.3738   -3.9031    0.4902 H   0  0  0  0  0  0  0  0  0  0  0  0
    2.9816   -3.8783    2.6135 H   0  0  0  0  0  0  0  0  0  0  0  0
    1.4538   -3.3706    3.2504 H   0  0  0  0  0  0  0  0  0  0  0  0
    4.0065   -1.9366    2.6896 H   0  0  0  0  0  0  0  0  0  0  0  0
    3.2217    0.3245    2.2161 H   0  0  0  0  0  0  0  0  0  0  0  0
    2.9404   -0.8296    0.9761 H   0  0  0  0  0  0  0  0  0  0  0  0
    0.7881   -0.2526    0.9128 H   0  0  0  0  0  0  0  0  0  0  0  0
    1.0616    0.9208    2.1745 H   0  0  0  0  0  0  0  0  0  0  0  0
    0.6772   -1.1432    3.8205 H   0  0  0  0  0  0  0  0  0  0  0  0
    0.0825   -1.9406    2.4797 H   0  0  0  0  0  0  0  0  0  0  0  0
   -2.4734    0.9286    4.1968 H   0  0  0  0  0  0  0  0  0  0  0  0
   -0.1751   -0.5405    5.3732 H   0  0  0  0  0  0  0  0  0  0  0  0
   -0.3563    2.4479    6.0054 H   0  0  0  0  0  0  0  0  0  0  0  0
    1.4134    0.2490    7.0813 H   0  0  0  0  0  0  0  0  0  0  0  0
    2.0787    1.7678    4.4821 H   0  0  0  0  0  0  0  0  0  0  0  0
    3.8724   -1.9492    4.8801 H   0  0  0  0  0  0  0  0  0  0  0  0
   -1.8229   -2.6746    2.0400 H   0  0  0  0  0  0  0  0  0  0  0  0
   -2.2107    0.2894    1.2795 H   0  0  0  0  0  0  0  0  0  0  0  0
    0.6312   -1.7527   -1.4731 H   0  0  0  0  0  0  0  0  0  0  0  0
    1.0897    0.0814   -3.0333 H   0  0  0  0  0  0  0  0  0  0  0  0
  1  2  1  0  0  0  0
  1 28  1  0  0  0  0
  1 29  1  0  0  0  0
  1 30  1  0  0  0  0
  2  3  1  0  0  0  0
  2 27  2  0  0  0  0
  3  4  2  0  0  0  0
  3 31  1  0  0  0  0
  4  5  1  0  0  0  0
  4 25  1  0  0  0  0
  5  6  1  0  0  0  0
  5 23  1  0  0  0  0
  5 32  1  0  0  0  0
  6  7  1  0  0  0  0
  6 33  1  0  0  0  0
  6 34  1  0  0  0  0
  7  8  1  0  0  0  0
  7 35  1  0  0  0  0
  7 36  1  0  0  0  0
  8  9  1  0  0  0  0
  8 37  1  0  0  0  0
  8 38  1  0  0  0  0
  9 10  1  0  0  0  0
  9 39  1  0  0  0  0
  9 40  1  0  0  0  0
 10 11  1  0  0  0  0
 10 20  1  0  0  0  0
 10 41  1  0  0  0  0
 11 12  1  0  0  0  0
 11 42  1  0  0  0  0
 11 43  1  0  0  0  0
 12 13  1  0  0  0  0
 12 44  1  0  0  0  0
 12 45  1  0  0  0  0
 13 14  1  0  0  0  0
 13 46  1  0  0  0  0
 13 47  1  0  0  0  0
 14 15  2  3  0  0  0
 14 24  1  0  0  0  0
 15 16  1  0  0  0  0
 15 48  1  0  0  0  0
 16 17  2  3  0  0  0
 16 49  1  0  0  0  0
 17 18  1  0  0  0  0
 17 50  1  0  0  0  0
 18 19  2  3  0  0  0
 18 51  1  0  0  0  0
 19 21  1  0  0  0  0
 19 52  1  0  0  0  0
 20 21  2  3  0  0  0
 20 53  1  0  0  0  0
 21 22  1  0  0  0  0
 23 24  2  3  0  0  0
 23 54  1  0  0  0  0
 24 55  1  0  0  0  0
 25 26  2  0  0  0  0
 25 56  1  0  0  0  0
 26 27  1  0  0  0  0
 26 57  1  0  0  0  0
M  END
$$$$
