
 OpenBabel04232216413D

207206  0  0  0  0  0  0  0  0999 V2000
   19.3058  -25.2129    0.9401 C   0  0  0  0  0  0  0  0  0  0  0  0
   20.2102  -24.6070    1.7269 C   0  0  0  0  0  0  0  0  0  0  0  0
   20.4605  -23.1374    1.6614 C   0  0  0  0  0  0  0  0  0  0  0  0
   21.8512  -22.8880    1.3048 N   0  0  0  0  0  0  0  0  0  0  0  0
   22.0442  -21.4723    1.2425 N   0  0  0  0  0  0  0  0  0  0  0  0
   23.3930  -21.1701    0.8858 N   0  0  0  0  0  0  0  0  0  0  0  0
   23.6032  -19.7565    0.8490 N   0  0  0  0  0  0  0  0  0  0  0  0
   23.3599  -19.1514    2.1299 N   0  0  0  0  0  0  0  0  0  0  0  0
   24.1992  -19.7073    3.1418 N   0  0  0  0  0  0  0  0  0  0  0  0
   25.5657  -19.4618    2.7952 N   0  0  0  0  0  0  0  0  0  0  0  0
   25.8211  -18.0393    2.7020 N   0  0  0  0  0  0  0  0  0  0  0  0
   25.4655  -17.4351    3.9373 N   0  0  0  0  0  0  0  0  0  0  0  0
   26.3070  -18.0167    4.9614 N   0  0  0  0  0  0  0  0  0  0  0  0
   27.6910  -17.8208    4.6077 N   0  0  0  0  0  0  0  0  0  0  0  0
   27.9682  -16.4201    4.5022 N   0  0  0  0  0  0  0  0  0  0  0  0
   27.6878  -15.7581    5.7520 N   0  0  0  0  0  0  0  0  0  0  0  0
   28.4967  -16.3165    6.7958 N   0  0  0  0  0  0  0  0  0  0  0  0
   29.8761  -16.1700    6.4563 N   0  0  0  0  0  0  0  0  0  0  0  0
   30.1451  -14.7750    6.3182 N   0  0  0  0  0  0  0  0  0  0  0  0
   29.8465  -14.0936    7.5622 N   0  0  0  0  0  0  0  0  0  0  0  0
   30.6352  -14.6395    8.6209 N   0  0  0  0  0  0  0  0  0  0  0  0
   32.0316  -14.4971    8.3249 N   0  0  0  0  0  0  0  0  0  0  0  0
   32.3037  -13.1049    8.1398 N   0  0  0  0  0  0  0  0  0  0  0  0
   31.9987  -12.3897    9.3719 N   0  0  0  0  0  0  0  0  0  0  0  0
   32.7804  -12.9118   10.4622 N   0  0  0  0  0  0  0  0  0  0  0  0
   34.1713  -12.7869   10.1950 N   0  0  0  0  0  0  0  0  0  0  0  0
   34.4835  -11.4080   10.0195 N   0  0  0  0  0  0  0  0  0  0  0  0
   34.1345  -10.6619   11.1930 N   0  0  0  0  0  0  0  0  0  0  0  0
   34.8681  -11.1749   12.3109 N   0  0  0  0  0  0  0  0  0  0  0  0
   36.2706  -11.0652   12.0420 N   0  0  0  0  0  0  0  0  0  0  0  0
   36.6067   -9.6939   11.8286 N   0  0  0  0  0  0  0  0  0  0  0  0
   36.2494   -8.9443   12.9778 N   0  0  0  0  0  0  0  0  0  0  0  0
   36.9652   -9.4371   14.1189 N   0  0  0  0  0  0  0  0  0  0  0  0
   38.3689   -9.3383   13.9048 N   0  0  0  0  0  0  0  0  0  0  0  0
   38.7041   -7.9875   13.6738 N   0  0  0  0  0  0  0  0  0  0  0  0
   38.3537   -7.2287   14.8634 C   0  0  0  0  0  0  0  0  0  0  0  0
   39.0716   -7.7787   15.9914 N   0  0  0  0  0  0  0  0  0  0  0  0
   40.5224   -7.6634   15.7789 C   0  0  0  0  0  0  0  0  0  0  0  0
   41.2917   -8.2340   16.9567 C   0  0  0  0  0  0  0  0  0  0  0  0
   42.7920   -8.1155   16.7115 C   0  0  0  0  0  0  0  0  0  0  0  0
   43.5622   -8.6829   17.8915 C   0  0  0  0  0  0  0  0  0  0  0  0
   45.0561   -8.5658   17.6479 C   0  0  0  0  0  0  0  0  0  0  0  0
   45.8205   -9.1336   18.8292 C   0  0  0  0  0  0  0  0  0  0  0  0
   47.3126   -9.0161   18.5848 C   0  0  0  0  0  0  0  0  0  0  0  0
   48.0757   -9.5837   19.7656 C   0  0  0  0  0  0  0  0  0  0  0  0
   49.5673   -9.4661   19.5210 C   0  0  0  0  0  0  0  0  0  0  0  0
   50.3302  -10.0336   20.7017 C   0  0  0  0  0  0  0  0  0  0  0  0
   51.8217   -9.9142   20.4580 C   0  0  0  0  0  0  0  0  0  0  0  0
   52.5846  -10.4835   21.6379 C   0  0  0  0  0  0  0  0  0  0  0  0
   54.0761  -10.3623   21.3949 C   0  0  0  0  0  0  0  0  0  0  0  0
   54.8390  -10.9317   22.5748 C   0  0  0  0  0  0  0  0  0  0  0  0
   56.3306  -10.8123   22.3310 C   0  0  0  0  0  0  0  0  0  0  0  0
   57.0935  -11.3834   23.5100 C   0  0  0  0  0  0  0  0  0  0  0  0
   58.5850  -11.2622   23.2671 C   0  0  0  0  0  0  0  0  0  0  0  0
   59.3479  -11.8316   24.4470 C   0  0  0  0  0  0  0  0  0  0  0  0
   60.8394  -11.7085   24.2049 C   0  0  0  0  0  0  0  0  0  0  0  0
   61.6023  -12.2796   25.3840 C   0  0  0  0  0  0  0  0  0  0  0  0
   63.0938  -12.1566   25.1419 C   0  0  0  0  0  0  0  0  0  0  0  0
   63.8567  -12.7260   26.3218 C   0  0  0  0  0  0  0  0  0  0  0  0
   65.3482  -12.6029   26.0798 C   0  0  0  0  0  0  0  0  0  0  0  0
   66.1111  -13.1723   27.2596 C   0  0  0  0  0  0  0  0  0  0  0  0
   67.6026  -13.0492   27.0176 C   0  0  0  0  0  0  0  0  0  0  0  0
   68.3655  -13.6186   28.1975 C   0  0  0  0  0  0  0  0  0  0  0  0
   69.8570  -13.4955   27.9555 C   0  0  0  0  0  0  0  0  0  0  0  0
   70.6199  -14.0649   29.1353 C   0  0  0  0  0  0  0  0  0  0  0  0
   72.1114  -13.9418   28.8933 C   0  0  0  0  0  0  0  0  0  0  0  0
   72.8743  -14.5112   30.0732 C   0  0  0  0  0  0  0  0  0  0  0  0
   74.3658  -14.3881   29.8311 C   0  0  0  0  0  0  0  0  0  0  0  0
   75.1286  -14.9557   31.0119 C   0  0  0  0  0  0  0  0  0  0  0  0
   76.6201  -14.8326   30.7699 C   0  0  0  0  0  0  0  0  0  0  0  0
   77.3830  -15.4002   31.9506 C   0  0  0  0  0  0  0  0  0  0  0  0
   78.8745  -15.2771   31.7086 C   0  0  0  0  0  0  0  0  0  0  0  0
   79.6374  -15.8447   32.8893 C   0  0  0  0  0  0  0  0  0  0  0  0
   81.1289  -15.7216   32.6473 C   0  0  0  0  0  0  0  0  0  0  0  0
   81.8919  -16.2874   33.8290 C   0  0  0  0  0  0  0  0  0  0  0  0
   83.3837  -16.1645   33.5872 C   0  0  0  0  0  0  0  0  0  0  0  0
   84.1469  -16.7305   34.7696 C   0  0  0  0  0  0  0  0  0  0  0  0
   85.6398  -16.6100   34.5282 C   0  0  0  0  0  0  0  0  0  0  0  0
   86.4086  -17.1741   35.7110 C   0  0  0  0  0  0  0  0  0  0  0  0
   87.8971  -17.0520   35.4665 C   0  0  0  0  0  0  0  0  0  0  0  0
   19.1670  -26.2804    0.9994 H   0  0  0  0  0  0  0  0  0  0  0  0
   18.7412  -24.6291    0.2231 H   0  0  0  0  0  0  0  0  0  0  0  0
   20.7792  -25.2119    2.4297 H   0  0  0  0  0  0  0  0  0  0  0  0
   20.2387  -22.6878    2.6431 H   0  0  0  0  0  0  0  0  0  0  0  0
   19.7989  -22.6600    0.9280 H   0  0  0  0  0  0  0  0  0  0  0  0
   22.0692  -23.2429    0.3717 H   0  0  0  0  0  0  0  0  0  0  0  0
   21.8260  -21.0585    2.1449 H   0  0  0  0  0  0  0  0  0  0  0  0
   23.6281  -21.5836   -0.0206 H   0  0  0  0  0  0  0  0  0  0  0  0
   22.9934  -19.3159    0.1590 H   0  0  0  0  0  0  0  0  0  0  0  0
   22.3925  -19.3072    2.3906 H   0  0  0  0  0  0  0  0  0  0  0  0
   24.0555  -20.7166    3.1864 H   0  0  0  0  0  0  0  0  0  0  0  0
   25.7543  -19.9080    1.8934 H   0  0  0  0  0  0  0  0  0  0  0  0
   25.1963  -17.6539    1.9968 H   0  0  0  0  0  0  0  0  0  0  0  0
   24.4616  -17.6137    4.1125 H   0  0  0  0  0  0  0  0  0  0  0  0
   26.1124  -19.0307    4.9922 H   0  0  0  0  0  0  0  0  0  0  0  0
   27.8981  -18.2358    3.6882 H   0  0  0  0  0  0  0  0  0  0  0  0
   27.3813  -16.0047    3.7764 H   0  0  0  0  0  0  0  0  0  0  0  0
   26.7076  -15.9011    5.9872 H   0  0  0  0  0  0  0  0  0  0  0  0
   28.2962  -17.3102    6.8676 H   0  0  0  0  0  0  0  0  0  0  0  0
   30.0414  -16.6704    5.5696 H   0  0  0  0  0  0  0  0  0  0  0  0
   29.5448  -14.3564    5.6089 H   0  0  0  0  0  0  0  0  0  0  0  0
   28.8646  -14.2412    7.8019 H   0  0  0  0  0  0  0  0  0  0  0  0
   30.4175  -15.6296    8.7266 H   0  0  0  0  0  0  0  0  0  0  0  0
   32.2158  -15.0185    7.4574 H   0  0  0  0  0  0  0  0  0  0  0  0
   31.7201  -12.7355    7.3677 H   0  0  0  0  0  0  0  0  0  0  0  0
   31.0053  -12.5083    9.6058 H   0  0  0  0  0  0  0  0  0  0  0  0
   32.5727  -13.8987   10.6157 H   0  0  0  0  0  0  0  0  0  0  0  0
   34.4134  -13.2864    9.3431 H   0  0  0  0  0  0  0  0  0  0  0  0
   33.9267  -11.0426    9.2500 H   0  0  0  0  0  0  0  0  0  0  0  0
   33.1421  -10.8037   11.3738 H   0  0  0  0  0  0  0  0  0  0  0  0
   34.6400  -12.1636   12.4004 H   0  0  0  0  0  0  0  0  0  0  0  0
   36.4774  -11.5786   11.1861 H   0  0  0  0  0  0  0  0  0  0  0  0
   36.0684   -9.3439   11.0401 H   0  0  0  0  0  0  0  0  0  0  0  0
   35.2423   -9.0364   13.1747 H   0  0  0  0  0  0  0  0  0  0  0  0
   36.7445  -10.4136   14.2757 H   0  0  0  0  0  0  0  0  0  0  0  0
   38.6182   -9.8701   13.0749 H   0  0  0  0  0  0  0  0  0  0  0  0
   38.1859   -7.6079   12.8850 H   0  0  0  0  0  0  0  0  0  0  0  0
   37.2760   -7.2690   15.0611 H   0  0  0  0  0  0  0  0  0  0  0  0
   38.5924   -6.1702   14.7408 H   0  0  0  0  0  0  0  0  0  0  0  0
   38.8209   -8.7576   16.1016 H   0  0  0  0  0  0  0  0  0  0  0  0
   40.8015   -6.6128   15.6358 H   0  0  0  0  0  0  0  0  0  0  0  0
   40.8209   -8.2118   14.8804 H   0  0  0  0  0  0  0  0  0  0  0  0
   41.0324   -9.2895   17.1009 H   0  0  0  0  0  0  0  0  0  0  0  0
   41.0295   -7.6936   17.8722 H   0  0  0  0  0  0  0  0  0  0  0  0
   43.0676   -7.0635   16.5655 H   0  0  0  0  0  0  0  0  0  0  0  0
   43.0695   -8.6572   15.7982 H   0  0  0  0  0  0  0  0  0  0  0  0
   43.2943   -9.7361   18.0399 H   0  0  0  0  0  0  0  0  0  0  0  0
   43.2942   -8.1409   18.8066 H   0  0  0  0  0  0  0  0  0  0  0  0
   45.3288   -7.5135   17.5015 H   0  0  0  0  0  0  0  0  0  0  0  0
   45.3288   -9.1088   16.7347 H   0  0  0  0  0  0  0  0  0  0  0  0
   45.5501  -10.1863   18.9765 H   0  0  0  0  0  0  0  0  0  0  0  0
   45.5501   -8.5910   19.7433 H   0  0  0  0  0  0  0  0  0  0  0  0
   47.5840   -7.9636   18.4378 H   0  0  0  0  0  0  0  0  0  0  0  0
   47.5840   -9.5589   17.6710 H   0  0  0  0  0  0  0  0  0  0  0  0
   47.8047  -10.6363   19.9127 H   0  0  0  0  0  0  0  0  0  0  0  0
   47.8047   -9.0410   20.6795 H   0  0  0  0  0  0  0  0  0  0  0  0
   49.8384   -8.4135   19.3739 H   0  0  0  0  0  0  0  0  0  0  0  0
   49.8385  -10.0088   18.6072 H   0  0  0  0  0  0  0  0  0  0  0  0
   50.0601  -11.0867   20.8479 H   0  0  0  0  0  0  0  0  0  0  0  0
   50.0581   -9.4919   21.6159 H   0  0  0  0  0  0  0  0  0  0  0  0
   52.0920   -8.8611   20.3132 H   0  0  0  0  0  0  0  0  0  0  0  0
   52.0938  -10.4548   19.5431 H   0  0  0  0  0  0  0  0  0  0  0  0
   52.3154  -11.5371   21.7817 H   0  0  0  0  0  0  0  0  0  0  0  0
   52.3116   -9.9440   22.5530 H   0  0  0  0  0  0  0  0  0  0  0  0
   54.3454   -9.3088   21.2511 H   0  0  0  0  0  0  0  0  0  0  0  0
   54.3492  -10.9019   20.4798 H   0  0  0  0  0  0  0  0  0  0  0  0
   54.5688  -11.9849   22.7195 H   0  0  0  0  0  0  0  0  0  0  0  0
   54.5670  -10.3912   23.4897 H   0  0  0  0  0  0  0  0  0  0  0  0
   56.6010   -9.7589   22.1877 H   0  0  0  0  0  0  0  0  0  0  0  0
   56.6024  -11.3516   21.4154 H   0  0  0  0  0  0  0  0  0  0  0  0
   56.8240  -12.4371   23.6524 H   0  0  0  0  0  0  0  0  0  0  0  0
   56.8206  -10.8450   24.4259 H   0  0  0  0  0  0  0  0  0  0  0  0
   58.8542  -10.2086   23.1233 H   0  0  0  0  0  0  0  0  0  0  0  0
   58.8580  -11.8017   22.3520 H   0  0  0  0  0  0  0  0  0  0  0  0
   59.0797  -12.8855   24.5899 H   0  0  0  0  0  0  0  0  0  0  0  0
   59.0738  -11.2929   25.3623 H   0  0  0  0  0  0  0  0  0  0  0  0
   61.1077  -10.6544   24.0634 H   0  0  0  0  0  0  0  0  0  0  0  0
   61.1133  -12.2459   23.2888 H   0  0  0  0  0  0  0  0  0  0  0  0
   61.3340  -13.3337   25.5255 H   0  0  0  0  0  0  0  0  0  0  0  0
   61.3283  -11.7422   26.3001 H   0  0  0  0  0  0  0  0  0  0  0  0
   63.3619  -11.1026   24.9990 H   0  0  0  0  0  0  0  0  0  0  0  0
   63.3679  -12.6952   24.2266 H   0  0  0  0  0  0  0  0  0  0  0  0
   63.5885  -13.7799   26.4647 H   0  0  0  0  0  0  0  0  0  0  0  0
   63.5825  -12.1873   27.2371 H   0  0  0  0  0  0  0  0  0  0  0  0
   65.6163  -11.5490   25.9368 H   0  0  0  0  0  0  0  0  0  0  0  0
   65.6223  -13.1415   25.1644 H   0  0  0  0  0  0  0  0  0  0  0  0
   65.8429  -14.2262   27.4026 H   0  0  0  0  0  0  0  0  0  0  0  0
   65.8369  -12.6336   28.1750 H   0  0  0  0  0  0  0  0  0  0  0  0
   67.8707  -11.9953   26.8747 H   0  0  0  0  0  0  0  0  0  0  0  0
   67.8767  -13.5878   26.1023 H   0  0  0  0  0  0  0  0  0  0  0  0
   68.0973  -14.6725   28.3404 H   0  0  0  0  0  0  0  0  0  0  0  0
   68.0913  -13.0799   29.1128 H   0  0  0  0  0  0  0  0  0  0  0  0
   70.1251  -12.4416   27.8125 H   0  0  0  0  0  0  0  0  0  0  0  0
   70.1311  -14.0342   27.0401 H   0  0  0  0  0  0  0  0  0  0  0  0
   70.3517  -15.1188   29.2783 H   0  0  0  0  0  0  0  0  0  0  0  0
   70.3457  -13.5262   30.0507 H   0  0  0  0  0  0  0  0  0  0  0  0
   72.3795  -12.8879   28.7504 H   0  0  0  0  0  0  0  0  0  0  0  0
   72.3855  -14.4805   27.9779 H   0  0  0  0  0  0  0  0  0  0  0  0
   72.6062  -15.5651   30.2161 H   0  0  0  0  0  0  0  0  0  0  0  0
   72.6001  -13.9725   30.9885 H   0  0  0  0  0  0  0  0  0  0  0  0
   74.6337  -13.3343   29.6868 H   0  0  0  0  0  0  0  0  0  0  0  0
   74.6401  -14.9280   28.9166 H   0  0  0  0  0  0  0  0  0  0  0  0
   74.8607  -16.0095   31.1563 H   0  0  0  0  0  0  0  0  0  0  0  0
   74.8543  -14.4158   31.9265 H   0  0  0  0  0  0  0  0  0  0  0  0
   76.8880  -13.7788   30.6255 H   0  0  0  0  0  0  0  0  0  0  0  0
   76.8945  -15.3725   29.8553 H   0  0  0  0  0  0  0  0  0  0  0  0
   77.1151  -16.4540   32.0950 H   0  0  0  0  0  0  0  0  0  0  0  0
   77.1086  -14.8603   32.8652 H   0  0  0  0  0  0  0  0  0  0  0  0
   79.1424  -14.2233   31.5642 H   0  0  0  0  0  0  0  0  0  0  0  0
   79.1489  -15.8170   30.7940 H   0  0  0  0  0  0  0  0  0  0  0  0
   79.3695  -16.8985   33.0337 H   0  0  0  0  0  0  0  0  0  0  0  0
   79.3630  -15.3048   33.8039 H   0  0  0  0  0  0  0  0  0  0  0  0
   81.3966  -14.6679   32.5015 H   0  0  0  0  0  0  0  0  0  0  0  0
   81.4035  -16.2626   31.7335 H   0  0  0  0  0  0  0  0  0  0  0  0
   81.6241  -17.3410   33.9748 H   0  0  0  0  0  0  0  0  0  0  0  0
   81.6172  -15.7463   34.7427 H   0  0  0  0  0  0  0  0  0  0  0  0
   83.6511  -15.1107   33.4412 H   0  0  0  0  0  0  0  0  0  0  0  0
   83.6580  -16.7054   32.6733 H   0  0  0  0  0  0  0  0  0  0  0  0
   83.8774  -17.7836   34.9156 H   0  0  0  0  0  0  0  0  0  0  0  0
   83.8726  -16.1881   35.6825 H   0  0  0  0  0  0  0  0  0  0  0  0
   85.9064  -15.5565   34.3784 H   0  0  0  0  0  0  0  0  0  0  0  0
   85.9116  -17.1522   33.6140 H   0  0  0  0  0  0  0  0  0  0  0  0
   86.1435  -18.2273   35.8592 H   0  0  0  0  0  0  0  0  0  0  0  0
   86.1383  -16.6308   36.6239 H   0  0  0  0  0  0  0  0  0  0  0  0
   88.1834  -17.6042   34.5656 H   0  0  0  0  0  0  0  0  0  0  0  0
   88.4527  -17.4569   36.3155 H   0  0  0  0  0  0  0  0  0  0  0  0
   88.1782  -16.0026   35.3328 H   0  0  0  0  0  0  0  0  0  0  0  0
  1  2  2  0  0  0  0
  1 81  1  0  0  0  0
  1 82  1  0  0  0  0
  2  3  1  0  0  0  0
  2 83  1  0  0  0  0
  3  4  1  0  0  0  0
  3 84  1  0  0  0  0
  3 85  1  0  0  0  0
  4  5  1  0  0  0  0
  4 86  1  0  0  0  0
  5  6  1  0  0  0  0
  5 87  1  0  0  0  0
  6  7  1  0  0  0  0
  6 88  1  0  0  0  0
  7  8  1  0  0  0  0
  7 89  1  0  0  0  0
  8  9  1  0  0  0  0
  8 90  1  0  0  0  0
  9 10  1  0  0  0  0
  9 91  1  0  0  0  0
 10 11  1  0  0  0  0
 10 92  1  0  0  0  0
 11 12  1  0  0  0  0
 11 93  1  0  0  0  0
 12 13  1  0  0  0  0
 12 94  1  0  0  0  0
 13 14  1  0  0  0  0
 13 95  1  0  0  0  0
 14 15  1  0  0  0  0
 14 96  1  0  0  0  0
 15 16  1  0  0  0  0
 15 97  1  0  0  0  0
 16 17  1  0  0  0  0
 16 98  1  0  0  0  0
 17 18  1  0  0  0  0
 17 99  1  0  0  0  0
 18 19  1  0  0  0  0
 18100  1  0  0  0  0
 19 20  1  0  0  0  0
 19101  1  0  0  0  0
 20 21  1  0  0  0  0
 20102  1  0  0  0  0
 21 22  1  0  0  0  0
 21103  1  0  0  0  0
 22 23  1  0  0  0  0
 22104  1  0  0  0  0
 23 24  1  0  0  0  0
 23105  1  0  0  0  0
 24 25  1  0  0  0  0
 24106  1  0  0  0  0
 25 26  1  0  0  0  0
 25107  1  0  0  0  0
 26 27  1  0  0  0  0
 26108  1  0  0  0  0
 27 28  1  0  0  0  0
 27109  1  0  0  0  0
 28 29  1  0  0  0  0
 28110  1  0  0  0  0
 29 30  1  0  0  0  0
 29111  1  0  0  0  0
 30 31  1  0  0  0  0
 30112  1  0  0  0  0
 31 32  1  0  0  0  0
 31113  1  0  0  0  0
 32 33  1  0  0  0  0
 32114  1  0  0  0  0
 33 34  1  0  0  0  0
 33115  1  0  0  0  0
 34 35  1  0  0  0  0
 34116  1  0  0  0  0
 35 36  1  0  0  0  0
 35117  1  0  0  0  0
 36 37  1  0  0  0  0
 36118  1  0  0  0  0
 36119  1  0  0  0  0
 37 38  1  0  0  0  0
 37120  1  0  0  0  0
 38 39  1  0  0  0  0
 38121  1  0  0  0  0
 38122  1  0  0  0  0
 39 40  1  0  0  0  0
 39123  1  0  0  0  0
 39124  1  0  0  0  0
 40 41  1  0  0  0  0
 40125  1  0  0  0  0
 40126  1  0  0  0  0
 41 42  1  0  0  0  0
 41127  1  0  0  0  0
 41128  1  0  0  0  0
 42 43  1  0  0  0  0
 42129  1  0  0  0  0
 42130  1  0  0  0  0
 43 44  1  0  0  0  0
 43131  1  0  0  0  0
 43132  1  0  0  0  0
 44 45  1  0  0  0  0
 44133  1  0  0  0  0
 44134  1  0  0  0  0
 45 46  1  0  0  0  0
 45135  1  0  0  0  0
 45136  1  0  0  0  0
 46 47  1  0  0  0  0
 46137  1  0  0  0  0
 46138  1  0  0  0  0
 47 48  1  0  0  0  0
 47139  1  0  0  0  0
 47140  1  0  0  0  0
 48 49  1  0  0  0  0
 48141  1  0  0  0  0
 48142  1  0  0  0  0
 49 50  1  0  0  0  0
 49143  1  0  0  0  0
 49144  1  0  0  0  0
 50 51  1  0  0  0  0
 50145  1  0  0  0  0
 50146  1  0  0  0  0
 51 52  1  0  0  0  0
 51147  1  0  0  0  0
 51148  1  0  0  0  0
 52 53  1  0  0  0  0
 52149  1  0  0  0  0
 52150  1  0  0  0  0
 53 54  1  0  0  0  0
 53151  1  0  0  0  0
 53152  1  0  0  0  0
 54 55  1  0  0  0  0
 54153  1  0  0  0  0
 54154  1  0  0  0  0
 55 56  1  0  0  0  0
 55155  1  0  0  0  0
 55156  1  0  0  0  0
 56 57  1  0  0  0  0
 56157  1  0  0  0  0
 56158  1  0  0  0  0
 57 58  1  0  0  0  0
 57159  1  0  0  0  0
 57160  1  0  0  0  0
 58 59  1  0  0  0  0
 58161  1  0  0  0  0
 58162  1  0  0  0  0
 59 60  1  0  0  0  0
 59163  1  0  0  0  0
 59164  1  0  0  0  0
 60 61  1  0  0  0  0
 60165  1  0  0  0  0
 60166  1  0  0  0  0
 61 62  1  0  0  0  0
 61167  1  0  0  0  0
 61168  1  0  0  0  0
 62 63  1  0  0  0  0
 62169  1  0  0  0  0
 62170  1  0  0  0  0
 63 64  1  0  0  0  0
 63171  1  0  0  0  0
 63172  1  0  0  0  0
 64 65  1  0  0  0  0
 64173  1  0  0  0  0
 64174  1  0  0  0  0
 65 66  1  0  0  0  0
 65175  1  0  0  0  0
 65176  1  0  0  0  0
 66 67  1  0  0  0  0
 66177  1  0  0  0  0
 66178  1  0  0  0  0
 67 68  1  0  0  0  0
 67179  1  0  0  0  0
 67180  1  0  0  0  0
 68 69  1  0  0  0  0
 68181  1  0  0  0  0
 68182  1  0  0  0  0
 69 70  1  0  0  0  0
 69183  1  0  0  0  0
 69184  1  0  0  0  0
 70 71  1  0  0  0  0
 70185  1  0  0  0  0
 70186  1  0  0  0  0
 71 72  1  0  0  0  0
 71187  1  0  0  0  0
 71188  1  0  0  0  0
 72 73  1  0  0  0  0
 72189  1  0  0  0  0
 72190  1  0  0  0  0
 73 74  1  0  0  0  0
 73191  1  0  0  0  0
 73192  1  0  0  0  0
 74 75  1  0  0  0  0
 74193  1  0  0  0  0
 74194  1  0  0  0  0
 75 76  1  0  0  0  0
 75195  1  0  0  0  0
 75196  1  0  0  0  0
 76 77  1  0  0  0  0
 76197  1  0  0  0  0
 76198  1  0  0  0  0
 77 78  1  0  0  0  0
 77199  1  0  0  0  0
 77200  1  0  0  0  0
 78 79  1  0  0  0  0
 78201  1  0  0  0  0
 78202  1  0  0  0  0
 79 80  1  0  0  0  0
 79203  1  0  0  0  0
 79204  1  0  0  0  0
 80205  1  0  0  0  0
 80206  1  0  0  0  0
 80207  1  0  0  0  0
M  END
$$$$
