
 OpenBabel04232216473D

 41 42  0  0  0  0  0  0  0  0999 V2000
    2.4313    1.4193   -1.5789 C   0  0  0  0  0  0  0  0  0  0  0  0
    0.9349    1.3868   -1.4606 C   0  0  0  0  0  0  0  0  0  0  0  0
    0.3114    1.3806   -0.2069 C   0  0  0  0  0  0  0  0  0  0  0  0
   -1.0828    1.3317   -0.1091 C   0  0  0  0  0  0  0  0  0  0  0  0
   -1.8656    1.2852   -1.2660 C   0  0  0  0  0  0  0  0  0  0  0  0
   -3.3412    1.2209   -1.1752 C   0  0  0  0  0  0  0  0  0  0  0  0
   -3.9447    1.2026   -0.0379 N   0  0  0  0  0  0  0  0  0  0  0  0
   -5.4204    1.1663   -0.1194 C   0  0  0  0  0  0  0  0  0  0  0  0
   -5.9728    2.5991   -0.1025 C   0  0  0  0  0  0  0  0  0  0  0  0
   -7.4317    2.6740   -0.1616 N   0  0  0  0  0  0  0  0  0  0  0  0
   -8.1056    2.7079   -1.3602 C   0  0  0  0  0  0  0  0  0  0  0  0
   -7.4592    2.6871   -2.4213 O   0  0  0  0  0  0  0  0  0  0  0  0
   -9.6127    2.7869   -1.2785 C   0  0  0  0  0  0  0  0  0  0  0  0
  -10.4417    3.2693   -2.5456 C   0  0  0  0  0  0  0  0  0  0  0  0
  -11.7992    3.3545   -2.5201 C   0  0  0  0  0  0  0  0  0  0  0  0
  -12.5280    3.8321   -3.7040 N   0  0  0  0  0  0  0  0  0  0  0  0
  -12.0041    3.5832   -4.9726 C   0  0  0  0  0  0  0  0  0  0  0  0
  -10.9604    2.9720   -5.2228 O   0  0  0  0  0  0  0  0  0  0  0  0
  -12.7673    4.1107   -6.1520 C   0  0  0  0  0  0  0  0  0  0  0  0
  -10.3711    2.4186   -0.2003 C   0  0  0  0  0  0  0  0  0  0  0  0
   -1.2545    1.3006   -2.5214 C   0  0  0  0  0  0  0  0  0  0  0  0
    0.1413    1.3505   -2.6152 C   0  0  0  0  0  0  0  0  0  0  0  0
    2.9146    1.4602   -0.5970 H   0  0  0  0  0  0  0  0  0  0  0  0
    2.7484    2.3011   -2.1448 H   0  0  0  0  0  0  0  0  0  0  0  0
    2.7876    0.5186   -2.0892 H   0  0  0  0  0  0  0  0  0  0  0  0
    0.9037    1.4094    0.7054 H   0  0  0  0  0  0  0  0  0  0  0  0
   -1.5528    1.3237    0.8717 H   0  0  0  0  0  0  0  0  0  0  0  0
   -3.8968    1.1998   -2.1318 H   0  0  0  0  0  0  0  0  0  0  0  0
   -5.7886    0.6210    0.7628 H   0  0  0  0  0  0  0  0  0  0  0  0
   -5.7722    0.6039   -0.9917 H   0  0  0  0  0  0  0  0  0  0  0  0
   -5.5614    3.1457   -0.9588 H   0  0  0  0  0  0  0  0  0  0  0  0
   -5.6575    3.1207    0.8076 H   0  0  0  0  0  0  0  0  0  0  0  0
   -7.9669    2.6578    0.6965 H   0  0  0  0  0  0  0  0  0  0  0  0
   -9.8139    3.5582   -3.4033 H   0  0  0  0  0  0  0  0  0  0  0  0
  -13.4415    4.2452   -3.5750 H   0  0  0  0  0  0  0  0  0  0  0  0
  -13.6900    4.6106   -5.8562 H   0  0  0  0  0  0  0  0  0  0  0  0
  -12.9949    3.2573   -6.8008 H   0  0  0  0  0  0  0  0  0  0  0  0
  -12.1243    4.8042   -6.7079 H   0  0  0  0  0  0  0  0  0  0  0  0
  -11.3088    2.2696    0.3158 H   0  0  0  0  0  0  0  0  0  0  0  0
   -1.8463    1.2691   -3.4320 H   0  0  0  0  0  0  0  0  0  0  0  0
    0.6097    1.3555   -3.5965 H   0  0  0  0  0  0  0  0  0  0  0  0
  1  2  1  0  0  0  0
  1 23  1  0  0  0  0
  1 24  1  0  0  0  0
  1 25  1  0  0  0  0
  2  3  1  0  0  0  0
  2 22  2  0  0  0  0
  3  4  2  0  0  0  0
  3 26  1  0  0  0  0
  4  5  1  0  0  0  0
  4 27  1  0  0  0  0
  5  6  1  0  0  0  0
  5 21  2  0  0  0  0
  6  7  2  3  0  0  0
  6 28  1  0  0  0  0
  7  8  1  0  0  0  0
  8  9  1  0  0  0  0
  8 29  1  0  0  0  0
  8 30  1  0  0  0  0
  9 10  1  0  0  0  0
  9 31  1  0  0  0  0
  9 32  1  0  0  0  0
 10 11  1  0  0  0  0
 10 33  1  0  0  0  0
 11 12  2  0  0  0  0
 11 13  1  0  0  0  0
 13 14  1  0  0  0  0
 13 20  2  0  0  0  0
 14 15  2  0  0  0  0
 14 34  1  0  0  0  0
 15 16  1  0  0  0  0
 15 20  1  0  0  0  0
 16 17  1  0  0  0  0
 16 35  1  0  0  0  0
 17 18  2  0  0  0  0
 17 19  1  0  0  0  0
 19 36  1  0  0  0  0
 19 37  1  0  0  0  0
 19 38  1  0  0  0  0
 20 39  1  0  0  0  0
 21 22  1  0  0  0  0
 21 40  1  0  0  0  0
 22 41  1  0  0  0  0
M  END
$$$$
