
 OpenBabel04232216503D

 45 45  0  0  0  0  0  0  0  0999 V2000
    0.8637    0.0420    0.3851 C   0  0  0  0  0  0  0  0  0  0  0  0
    2.3891    0.0127    0.2259 C   0  0  0  0  0  0  0  0  0  0  0  0
    2.9266   -1.4118   -0.0968 C   0  0  0  0  0  0  0  0  0  0  0  0
    2.0411   -2.3548   -0.9292 C   0  0  0  0  0  0  0  0  0  0  0  0
    2.0673   -2.0825   -2.4319 C   0  0  0  0  0  0  0  0  0  0  0  0
    0.9262   -2.8123   -3.1552 C   0  0  0  0  0  0  0  0  0  0  0  0
    0.5098   -2.1193   -4.4574 C   0  0  0  0  0  0  0  0  0  0  0  0
   -0.0956   -0.7252   -4.2115 C   0  0  0  0  0  0  0  0  0  0  0  0
    0.6556    0.3642   -4.9828 C   0  0  0  0  0  0  0  0  0  0  0  0
    0.2393    1.7834   -4.5698 C   0  0  0  0  0  0  0  0  0  0  0  0
    1.3512    2.5418   -3.8291 C   0  0  0  0  0  0  0  0  0  0  0  0
    0.9753    2.9020   -2.3892 C   0  0  0  0  0  0  0  0  0  0  0  0
    2.1956    3.4073   -1.5988 C   0  0  0  0  0  0  0  0  0  0  0  0
    2.5488    2.5197   -0.3982 C   0  0  0  0  0  0  0  0  0  0  0  0
    2.8942    1.0690   -0.7808 C   0  0  0  0  0  0  0  0  0  0  0  0
    0.5258   -0.7653    1.0441 H   0  0  0  0  0  0  0  0  0  0  0  0
    0.3580   -0.0608   -0.5791 H   0  0  0  0  0  0  0  0  0  0  0  0
    0.5168    0.9712    0.8426 H   0  0  0  0  0  0  0  0  0  0  0  0
    2.8183    0.2859    1.2001 H   0  0  0  0  0  0  0  0  0  0  0  0
    3.0710   -1.9102    0.8726 H   0  0  0  0  0  0  0  0  0  0  0  0
    3.9245   -1.3475   -0.5460 H   0  0  0  0  0  0  0  0  0  0  0  0
    1.0134   -2.3384   -0.5533 H   0  0  0  0  0  0  0  0  0  0  0  0
    2.3911   -3.3830   -0.7690 H   0  0  0  0  0  0  0  0  0  0  0  0
    3.0285   -2.4057   -2.8500 H   0  0  0  0  0  0  0  0  0  0  0  0
    2.0011   -1.0098   -2.6117 H   0  0  0  0  0  0  0  0  0  0  0  0
    0.0430   -2.8904   -2.5105 H   0  0  0  0  0  0  0  0  0  0  0  0
    1.2420   -3.8407   -3.3763 H   0  0  0  0  0  0  0  0  0  0  0  0
   -0.2440   -2.7444   -4.9519 H   0  0  0  0  0  0  0  0  0  0  0  0
    1.3679   -2.0734   -5.1385 H   0  0  0  0  0  0  0  0  0  0  0  0
   -0.1139   -0.4831   -3.1427 H   0  0  0  0  0  0  0  0  0  0  0  0
   -1.1427   -0.7276   -4.5399 H   0  0  0  0  0  0  0  0  0  0  0  0
    0.4467    0.2304   -6.0498 H   0  0  0  0  0  0  0  0  0  0  0  0
    1.7387    0.2213   -4.8656 H   0  0  0  0  0  0  0  0  0  0  0  0
   -0.6917    1.7706   -3.9925 H   0  0  0  0  0  0  0  0  0  0  0  0
    0.0173    2.3405   -5.4894 H   0  0  0  0  0  0  0  0  0  0  0  0
    1.5600    3.4747   -4.3684 H   0  0  0  0  0  0  0  0  0  0  0  0
    2.2869    1.9734   -3.8381 H   0  0  0  0  0  0  0  0  0  0  0  0
    0.5108    2.0446   -1.8910 H   0  0  0  0  0  0  0  0  0  0  0  0
    0.2129    3.6909   -2.4134 H   0  0  0  0  0  0  0  0  0  0  0  0
    1.9727    4.4123   -1.2195 H   0  0  0  0  0  0  0  0  0  0  0  0
    3.0750    3.5116   -2.2455 H   0  0  0  0  0  0  0  0  0  0  0  0
    1.7240    2.5744    0.3169 H   0  0  0  0  0  0  0  0  0  0  0  0
    3.4120    2.9600    0.1188 H   0  0  0  0  0  0  0  0  0  0  0  0
    3.9882    0.9957   -0.8565 H   0  0  0  0  0  0  0  0  0  0  0  0
    2.5132    0.8315   -1.7730 H   0  0  0  0  0  0  0  0  0  0  0  0
  1  2  1  0  0  0  0
  1 16  1  0  0  0  0
  1 17  1  0  0  0  0
  1 18  1  0  0  0  0
  2  3  1  0  0  0  0
  2 15  1  0  0  0  0
  2 19  1  0  0  0  0
  3  4  1  0  0  0  0
  3 20  1  0  0  0  0
  3 21  1  0  0  0  0
  4  5  1  0  0  0  0
  4 22  1  0  0  0  0
  4 23  1  0  0  0  0
  5  6  1  0  0  0  0
  5 24  1  0  0  0  0
  5 25  1  0  0  0  0
  6  7  1  0  0  0  0
  6 26  1  0  0  0  0
  6 27  1  0  0  0  0
  7  8  1  0  0  0  0
  7 28  1  0  0  0  0
  7 29  1  0  0  0  0
  8  9  1  0  0  0  0
  8 30  1  0  0  0  0
  8 31  1  0  0  0  0
  9 10  1  0  0  0  0
  9 32  1  0  0  0  0
  9 33  1  0  0  0  0
 10 11  1  0  0  0  0
 10 34  1  0  0  0  0
 10 35  1  0  0  0  0
 11 12  1  0  0  0  0
 11 36  1  0  0  0  0
 11 37  1  0  0  0  0
 12 13  1  0  0  0  0
 12 38  1  0  0  0  0
 12 39  1  0  0  0  0
 13 14  1  0  0  0  0
 13 40  1  0  0  0  0
 13 41  1  0  0  0  0
 14 15  1  0  0  0  0
 14 42  1  0  0  0  0
 14 43  1  0  0  0  0
 15 44  1  0  0  0  0
 15 45  1  0  0  0  0
M  END
$$$$
