
 OpenBabel04232217023D

 94 93  0  0  0  0  0  0  0  0999 V2000
   11.4533   10.5752   -1.3595 O   0  0  0  0  0  0  0  0  0  0  0  0
   10.8828    9.7895   -0.2776 O   0  0  0  0  0  0  0  0  0  0  0  0
   11.3920   10.3589    0.9167 C   0  0  0  0  0  0  0  0  0  0  0  0
   10.8533    9.6000    2.1036 C   0  0  0  0  0  0  0  0  0  0  0  0
   11.3746   10.1716    3.4222 C   0  0  0  0  0  0  0  0  0  0  0  0
   10.8233    9.4032    4.6225 C   0  0  0  0  0  0  0  0  0  0  0  0
   11.2693    7.9867    4.5568 N   0  0  0  0  0  0  0  0  0  0  0  0
   10.7094    7.2758    5.6781 N   0  0  0  0  0  0  0  0  0  0  0  0
   11.1015    5.8699    5.6393 N   0  0  0  0  0  0  0  0  0  0  0  0
   10.4981    5.1216    7.0040 S   0  0  0  0  0  0  0  0  0  0  0  0
   11.1568    3.1771    6.8038 S   0  0  0  0  0  0  0  0  0  0  0  0
   13.2235    3.1602    6.8377 S   0  0  0  0  0  0  0  0  0  0  0  0
   13.9159    3.9339    8.6365 S   0  0  0  0  0  0  0  0  0  0  0  0
   16.0229    3.9394    8.6000 S   0  0  0  0  0  0  0  0  0  0  0  0
   16.7176    4.7845   10.4055 S   0  0  0  0  0  0  0  0  0  0  0  0
   18.8276    4.7791   10.3946 S   0  0  0  0  0  0  0  0  0  0  0  0
   19.5186    5.6245   12.2002 S   0  0  0  0  0  0  0  0  0  0  0  0
   21.6281    5.6190   12.1884 S   0  0  0  0  0  0  0  0  0  0  0  0
   22.3188    6.4641   13.9934 S   0  0  0  0  0  0  0  0  0  0  0  0
   24.4282    6.4585   13.9815 S   0  0  0  0  0  0  0  0  0  0  0  0
   25.1188    7.3036   15.7865 S   0  0  0  0  0  0  0  0  0  0  0  0
   27.2282    7.2980   15.7746 S   0  0  0  0  0  0  0  0  0  0  0  0
   27.9188    8.1432   17.5796 S   0  0  0  0  0  0  0  0  0  0  0  0
   30.0282    8.1376   17.5677 S   0  0  0  0  0  0  0  0  0  0  0  0
   30.7188    8.9827   19.3727 S   0  0  0  0  0  0  0  0  0  0  0  0
   32.8281    8.9771   19.3608 S   0  0  0  0  0  0  0  0  0  0  0  0
   33.5188    9.8222   21.1658 S   0  0  0  0  0  0  0  0  0  0  0  0
   35.6281    9.8166   21.1539 S   0  0  0  0  0  0  0  0  0  0  0  0
   36.3188   10.6618   22.9589 S   0  0  0  0  0  0  0  0  0  0  0  0
   38.4281   10.6562   22.9470 S   0  0  0  0  0  0  0  0  0  0  0  0
   39.1188   11.5013   24.7520 S   0  0  0  0  0  0  0  0  0  0  0  0
   41.2281   11.4957   24.7401 S   0  0  0  0  0  0  0  0  0  0  0  0
   41.9188   12.3408   26.5451 S   0  0  0  0  0  0  0  0  0  0  0  0
   44.0281   12.3352   26.5332 S   0  0  0  0  0  0  0  0  0  0  0  0
   44.7188   13.1803   28.3382 S   0  0  0  0  0  0  0  0  0  0  0  0
   46.8281   13.1747   28.3263 S   0  0  0  0  0  0  0  0  0  0  0  0
   47.5187   14.0199   30.1313 S   0  0  0  0  0  0  0  0  0  0  0  0
   49.6281   14.0143   30.1194 S   0  0  0  0  0  0  0  0  0  0  0  0
   50.3187   14.8594   31.9244 S   0  0  0  0  0  0  0  0  0  0  0  0
   52.4281   14.8538   31.9124 S   0  0  0  0  0  0  0  0  0  0  0  0
   53.1187   15.6989   33.7175 S   0  0  0  0  0  0  0  0  0  0  0  0
   55.2281   15.6933   33.7055 S   0  0  0  0  0  0  0  0  0  0  0  0
   55.9187   16.5385   35.5106 S   0  0  0  0  0  0  0  0  0  0  0  0
   58.0281   16.5329   35.4986 S   0  0  0  0  0  0  0  0  0  0  0  0
   58.7187   17.3780   37.3037 S   0  0  0  0  0  0  0  0  0  0  0  0
   60.8281   17.3724   37.2917 S   0  0  0  0  0  0  0  0  0  0  0  0
   61.5187   18.2175   39.0968 S   0  0  0  0  0  0  0  0  0  0  0  0
   63.6281   18.2119   39.0848 S   0  0  0  0  0  0  0  0  0  0  0  0
   64.3187   19.0570   40.8899 S   0  0  0  0  0  0  0  0  0  0  0  0
   66.4281   19.0514   40.8779 S   0  0  0  0  0  0  0  0  0  0  0  0
   67.1187   19.8966   42.6830 S   0  0  0  0  0  0  0  0  0  0  0  0
   69.2280   19.8910   42.6710 S   0  0  0  0  0  0  0  0  0  0  0  0
   69.9187   20.7361   44.4761 S   0  0  0  0  0  0  0  0  0  0  0  0
   72.0280   20.7305   44.4641 S   0  0  0  0  0  0  0  0  0  0  0  0
   72.7187   21.5756   46.2692 S   0  0  0  0  0  0  0  0  0  0  0  0
   74.8280   21.5700   46.2572 S   0  0  0  0  0  0  0  0  0  0  0  0
   75.5187   22.4152   48.0623 S   0  0  0  0  0  0  0  0  0  0  0  0
   77.6280   22.4096   48.0503 S   0  0  0  0  0  0  0  0  0  0  0  0
   78.3187   23.2547   49.8554 S   0  0  0  0  0  0  0  0  0  0  0  0
   80.4280   23.2491   49.8434 S   0  0  0  0  0  0  0  0  0  0  0  0
   81.1187   24.0942   51.6485 S   0  0  0  0  0  0  0  0  0  0  0  0
   83.2280   24.0886   51.6365 S   0  0  0  0  0  0  0  0  0  0  0  0
   83.9186   24.9337   53.4416 S   0  0  0  0  0  0  0  0  0  0  0  0
   86.0280   24.9281   53.4296 S   0  0  0  0  0  0  0  0  0  0  0  0
   86.7186   25.7733   55.2347 S   0  0  0  0  0  0  0  0  0  0  0  0
   88.8280   25.7677   55.2227 S   0  0  0  0  0  0  0  0  0  0  0  0
   89.5186   26.6128   57.0278 S   0  0  0  0  0  0  0  0  0  0  0  0
   91.6280   26.6072   57.0158 S   0  0  0  0  0  0  0  0  0  0  0  0
   92.3186   27.4523   58.8209 S   0  0  0  0  0  0  0  0  0  0  0  0
   94.4280   27.4467   58.8089 S   0  0  0  0  0  0  0  0  0  0  0  0
   95.1186   28.2919   60.6140 S   0  0  0  0  0  0  0  0  0  0  0  0
   97.2280   28.2863   60.6020 S   0  0  0  0  0  0  0  0  0  0  0  0
   97.9186   29.1314   62.4071 S   0  0  0  0  0  0  0  0  0  0  0  0
  100.0279   29.1258   62.3951 S   0  0  0  0  0  0  0  0  0  0  0  0
  100.7183   29.9707   64.2000 S   0  0  0  0  0  0  0  0  0  0  0  0
  102.8262   29.9653   64.1873 S   0  0  0  0  0  0  0  0  0  0  0  0
  103.5145   30.8090   65.9900 S   0  0  0  0  0  0  0  0  0  0  0  0
  105.6124   30.7793   65.9731 S   0  0  0  0  0  0  0  0  0  0  0  0
  106.3011   31.6723   67.7252 S   0  0  0  0  0  0  0  0  0  0  0  0
  108.3843   31.6097   67.7092 S   0  0  0  0  0  0  0  0  0  0  0  0
  109.0009   32.7903   66.1405 S   0  0  0  0  0  0  0  0  0  0  0  0
   11.0334   10.0834   -2.0682 H   0  0  0  0  0  0  0  0  0  0  0  0
   11.0880   11.4147    0.9725 H   0  0  0  0  0  0  0  0  0  0  0  0
   12.4917   10.3122    0.9035 H   0  0  0  0  0  0  0  0  0  0  0  0
   11.1331    8.5412    2.0111 H   0  0  0  0  0  0  0  0  0  0  0  0
    9.7543    9.6215    2.0923 H   0  0  0  0  0  0  0  0  0  0  0  0
   11.0830   11.2304    3.4945 H   0  0  0  0  0  0  0  0  0  0  0  0
   12.4725   10.1495    3.4224 H   0  0  0  0  0  0  0  0  0  0  0  0
    9.7357    9.4796    4.6143 H   0  0  0  0  0  0  0  0  0  0  0  0
   11.1938    9.8705    5.5412 H   0  0  0  0  0  0  0  0  0  0  0  0
   12.2573    7.9535    4.5508 H   0  0  0  0  0  0  0  0  0  0  0  0
    9.7068    7.3409    5.6407 H   0  0  0  0  0  0  0  0  0  0  0  0
   12.1106    5.8345    5.6516 H   0  0  0  0  0  0  0  0  0  0  0  0
  110.3483   32.7163   66.1969 H   0  0  0  0  0  0  0  0  0  0  0  0
  1  2  1  0  0  0  0
  1 82  1  0  0  0  0
  2  3  1  0  0  0  0
  3  4  1  0  0  0  0
  3 83  1  0  0  0  0
  3 84  1  0  0  0  0
  4  5  1  0  0  0  0
  4 85  1  0  0  0  0
  4 86  1  0  0  0  0
  5  6  1  0  0  0  0
  5 87  1  0  0  0  0
  5 88  1  0  0  0  0
  6  7  1  0  0  0  0
  6 89  1  0  0  0  0
  6 90  1  0  0  0  0
  7  8  1  0  0  0  0
  7 91  1  0  0  0  0
  8  9  1  0  0  0  0
  8 92  1  0  0  0  0
  9 10  1  0  0  0  0
  9 93  1  0  0  0  0
 10 11  1  0  0  0  0
 11 12  1  0  0  0  0
 12 13  1  0  0  0  0
 13 14  1  0  0  0  0
 14 15  1  0  0  0  0
 15 16  1  0  0  0  0
 16 17  1  0  0  0  0
 17 18  1  0  0  0  0
 18 19  1  0  0  0  0
 19 20  1  0  0  0  0
 20 21  1  0  0  0  0
 21 22  1  0  0  0  0
 22 23  1  0  0  0  0
 23 24  1  0  0  0  0
 24 25  1  0  0  0  0
 25 26  1  0  0  0  0
 26 27  1  0  0  0  0
 27 28  1  0  0  0  0
 28 29  1  0  0  0  0
 29 30  1  0  0  0  0
 30 31  1  0  0  0  0
 31 32  1  0  0  0  0
 32 33  1  0  0  0  0
 33 34  1  0  0  0  0
 34 35  1  0  0  0  0
 35 36  1  0  0  0  0
 36 37  1  0  0  0  0
 37 38  1  0  0  0  0
 38 39  1  0  0  0  0
 39 40  1  0  0  0  0
 40 41  1  0  0  0  0
 41 42  1  0  0  0  0
 42 43  1  0  0  0  0
 43 44  1  0  0  0  0
 44 45  1  0  0  0  0
 45 46  1  0  0  0  0
 46 47  1  0  0  0  0
 47 48  1  0  0  0  0
 48 49  1  0  0  0  0
 49 50  1  0  0  0  0
 50 51  1  0  0  0  0
 51 52  1  0  0  0  0
 52 53  1  0  0  0  0
 53 54  1  0  0  0  0
 54 55  1  0  0  0  0
 55 56  1  0  0  0  0
 56 57  1  0  0  0  0
 57 58  1  0  0  0  0
 58 59  1  0  0  0  0
 59 60  1  0  0  0  0
 60 61  1  0  0  0  0
 61 62  1  0  0  0  0
 62 63  1  0  0  0  0
 63 64  1  0  0  0  0
 64 65  1  0  0  0  0
 65 66  1  0  0  0  0
 66 67  1  0  0  0  0
 67 68  1  0  0  0  0
 68 69  1  0  0  0  0
 69 70  1  0  0  0  0
 70 71  1  0  0  0  0
 71 72  1  0  0  0  0
 72 73  1  0  0  0  0
 73 74  1  0  0  0  0
 74 75  1  0  0  0  0
 75 76  1  0  0  0  0
 76 77  1  0  0  0  0
 77 78  1  0  0  0  0
 78 79  1  0  0  0  0
 79 80  1  0  0  0  0
 80 81  1  0  0  0  0
 81 94  1  0  0  0  0
M  END
$$$$
