
 OpenBabel04232217023D

 86 85  0  0  0  0  0  0  0  0999 V2000
    8.4650    0.5076    9.6917 O   0  0  0  0  0  0  0  0  0  0  0  0
    7.8867    1.3844    8.6865 O   0  0  0  0  0  0  0  0  0  0  0  0
    8.3678    0.9440    7.1470 S   0  0  0  0  0  0  0  0  0  0  0  0
    7.5603   -0.6766    7.0396 C   0  0  0  0  0  0  0  0  0  0  0  0
    7.7921   -1.3509    5.7313 N   0  0  0  0  0  0  0  0  0  0  0  0
    7.1704   -2.8930    5.5608 S   0  0  0  0  0  0  0  0  0  0  0  0
    7.7746   -3.4141    3.6670 S   0  0  0  0  0  0  0  0  0  0  0  0
    9.8537   -3.4695    3.6445 S   0  0  0  0  0  0  0  0  0  0  0  0
   10.5215   -4.8666    5.0283 S   0  0  0  0  0  0  0  0  0  0  0  0
   12.6218   -4.8180    5.0142 S   0  0  0  0  0  0  0  0  0  0  0  0
   13.3181   -6.1821    6.4581 S   0  0  0  0  0  0  0  0  0  0  0  0
   15.4271   -6.1736    6.4477 S   0  0  0  0  0  0  0  0  0  0  0  0
   16.1187   -7.5421    7.8984 S   0  0  0  0  0  0  0  0  0  0  0  0
   18.2290   -7.5338    7.8896 S   0  0  0  0  0  0  0  0  0  0  0  0
   18.9203   -8.9020    9.3396 S   0  0  0  0  0  0  0  0  0  0  0  0
   21.0300   -8.8930    9.3301 S   0  0  0  0  0  0  0  0  0  0  0  0
   21.7209  -10.2609   10.7799 S   0  0  0  0  0  0  0  0  0  0  0  0
   23.8304  -10.2518   10.7702 S   0  0  0  0  0  0  0  0  0  0  0  0
   24.5211  -11.6197   12.2199 S   0  0  0  0  0  0  0  0  0  0  0  0
   26.6305  -11.6106   12.2102 S   0  0  0  0  0  0  0  0  0  0  0  0
   27.3211  -12.9784   13.6599 S   0  0  0  0  0  0  0  0  0  0  0  0
   29.4305  -12.9694   13.6503 S   0  0  0  0  0  0  0  0  0  0  0  0
   30.1211  -14.3372   15.1000 S   0  0  0  0  0  0  0  0  0  0  0  0
   32.2305  -14.3281   15.0904 S   0  0  0  0  0  0  0  0  0  0  0  0
   32.9211  -15.6960   16.5400 S   0  0  0  0  0  0  0  0  0  0  0  0
   35.0305  -15.6869   16.5304 S   0  0  0  0  0  0  0  0  0  0  0  0
   35.7211  -17.0548   17.9801 S   0  0  0  0  0  0  0  0  0  0  0  0
   37.8304  -17.0457   17.9705 S   0  0  0  0  0  0  0  0  0  0  0  0
   38.5211  -18.4135   19.4202 S   0  0  0  0  0  0  0  0  0  0  0  0
   40.6304  -18.4044   19.4105 S   0  0  0  0  0  0  0  0  0  0  0  0
   41.3211  -19.7723   20.8602 S   0  0  0  0  0  0  0  0  0  0  0  0
   43.4304  -19.7632   20.8506 S   0  0  0  0  0  0  0  0  0  0  0  0
   44.1211  -21.1311   22.3003 S   0  0  0  0  0  0  0  0  0  0  0  0
   46.2304  -21.1220   22.2906 S   0  0  0  0  0  0  0  0  0  0  0  0
   46.9210  -22.4898   23.7403 S   0  0  0  0  0  0  0  0  0  0  0  0
   49.0304  -22.4808   23.7307 S   0  0  0  0  0  0  0  0  0  0  0  0
   49.7210  -23.8486   25.1804 S   0  0  0  0  0  0  0  0  0  0  0  0
   51.8304  -23.8395   25.1707 S   0  0  0  0  0  0  0  0  0  0  0  0
   52.5210  -25.2074   26.6204 S   0  0  0  0  0  0  0  0  0  0  0  0
   54.6304  -25.1983   26.6108 S   0  0  0  0  0  0  0  0  0  0  0  0
   55.3210  -26.5662   28.0605 S   0  0  0  0  0  0  0  0  0  0  0  0
   57.4304  -26.5571   28.0508 S   0  0  0  0  0  0  0  0  0  0  0  0
   58.1210  -27.9249   29.5005 S   0  0  0  0  0  0  0  0  0  0  0  0
   60.2304  -27.9158   29.4909 S   0  0  0  0  0  0  0  0  0  0  0  0
   60.9210  -29.2837   30.9406 S   0  0  0  0  0  0  0  0  0  0  0  0
   63.0304  -29.2746   30.9309 S   0  0  0  0  0  0  0  0  0  0  0  0
   63.7210  -30.6425   32.3806 S   0  0  0  0  0  0  0  0  0  0  0  0
   65.8304  -30.6334   32.3710 S   0  0  0  0  0  0  0  0  0  0  0  0
   66.5210  -32.0012   33.8207 S   0  0  0  0  0  0  0  0  0  0  0  0
   68.6304  -31.9921   33.8110 S   0  0  0  0  0  0  0  0  0  0  0  0
   69.3210  -33.3600   35.2607 S   0  0  0  0  0  0  0  0  0  0  0  0
   71.4304  -33.3509   35.2511 S   0  0  0  0  0  0  0  0  0  0  0  0
   72.1210  -34.7188   36.7008 S   0  0  0  0  0  0  0  0  0  0  0  0
   74.2304  -34.7097   36.6912 S   0  0  0  0  0  0  0  0  0  0  0  0
   74.9210  -36.0775   38.1408 S   0  0  0  0  0  0  0  0  0  0  0  0
   77.0303  -36.0685   38.1312 S   0  0  0  0  0  0  0  0  0  0  0  0
   77.7210  -37.4363   39.5809 S   0  0  0  0  0  0  0  0  0  0  0  0
   79.8297  -37.4265   39.5705 S   0  0  0  0  0  0  0  0  0  0  0  0
   80.5209  -38.7954   41.0213 S   0  0  0  0  0  0  0  0  0  0  0  0
   82.6299  -38.7865   41.0119 S   0  0  0  0  0  0  0  0  0  0  0  0
   83.3235  -40.1529   42.4600 S   0  0  0  0  0  0  0  0  0  0  0  0
   85.4331  -40.1412   42.4476 S   0  0  0  0  0  0  0  0  0  0  0  0
   86.1287  -41.5075   43.8956 S   0  0  0  0  0  0  0  0  0  0  0  0
   88.2351  -41.5002   43.8879 S   0  0  0  0  0  0  0  0  0  0  0  0
   88.9248  -42.8688   45.3384 S   0  0  0  0  0  0  0  0  0  0  0  0
   91.0325  -42.8609   45.3300 S   0  0  0  0  0  0  0  0  0  0  0  0
   91.7242  -44.2275   46.7783 S   0  0  0  0  0  0  0  0  0  0  0  0
   93.8333  -44.2199   46.7703 S   0  0  0  0  0  0  0  0  0  0  0  0
   94.5208  -45.5889   48.2212 S   0  0  0  0  0  0  0  0  0  0  0  0
   96.6294  -45.5840   48.2160 S   0  0  0  0  0  0  0  0  0  0  0  0
   97.3155  -46.9533   49.6672 S   0  0  0  0  0  0  0  0  0  0  0  0
   99.4243  -46.9446   49.6580 S   0  0  0  0  0  0  0  0  0  0  0  0
  100.1179  -48.3110   51.1061 S   0  0  0  0  0  0  0  0  0  0  0  0
  102.2262  -48.2970   51.0913 S   0  0  0  0  0  0  0  0  0  0  0  0
  102.9165  -49.6627   52.5390 S   0  0  0  0  0  0  0  0  0  0  0  0
  105.0193  -49.6503   52.5247 S   0  0  0  0  0  0  0  0  0  0  0  0
  105.6983  -51.0133   53.9701 S   0  0  0  0  0  0  0  0  0  0  0  0
  107.7883  -50.9673   53.9598 S   0  0  0  0  0  0  0  0  0  0  0  0
  108.4609  -52.3747   55.3362 S   0  0  0  0  0  0  0  0  0  0  0  0
  110.5364  -52.2866   55.3424 S   0  0  0  0  0  0  0  0  0  0  0  0
  111.1367  -52.9325   53.4820 S   0  0  0  0  0  0  0  0  0  0  0  0
    8.1391    0.9845   10.4442 H   0  0  0  0  0  0  0  0  0  0  0  0
    6.4965   -0.5551    7.2083 H   0  0  0  0  0  0  0  0  0  0  0  0
    7.9712   -1.3048    7.8488 H   0  0  0  0  0  0  0  0  0  0  0  0
    8.7929   -1.3636    5.5985 H   0  0  0  0  0  0  0  0  0  0  0  0
  112.4829  -52.8636   53.5798 H   0  0  0  0  0  0  0  0  0  0  0  0
  1  2  1  0  0  0  0
  1 82  1  0  0  0  0
  2  3  1  0  0  0  0
  3  4  1  0  0  0  0
  4  5  1  0  0  0  0
  4 83  1  0  0  0  0
  4 84  1  0  0  0  0
  5  6  1  0  0  0  0
  5 85  1  0  0  0  0
  6  7  1  0  0  0  0
  7  8  1  0  0  0  0
  8  9  1  0  0  0  0
  9 10  1  0  0  0  0
 10 11  1  0  0  0  0
 11 12  1  0  0  0  0
 12 13  1  0  0  0  0
 13 14  1  0  0  0  0
 14 15  1  0  0  0  0
 15 16  1  0  0  0  0
 16 17  1  0  0  0  0
 17 18  1  0  0  0  0
 18 19  1  0  0  0  0
 19 20  1  0  0  0  0
 20 21  1  0  0  0  0
 21 22  1  0  0  0  0
 22 23  1  0  0  0  0
 23 24  1  0  0  0  0
 24 25  1  0  0  0  0
 25 26  1  0  0  0  0
 26 27  1  0  0  0  0
 27 28  1  0  0  0  0
 28 29  1  0  0  0  0
 29 30  1  0  0  0  0
 30 31  1  0  0  0  0
 31 32  1  0  0  0  0
 32 33  1  0  0  0  0
 33 34  1  0  0  0  0
 34 35  1  0  0  0  0
 35 36  1  0  0  0  0
 36 37  1  0  0  0  0
 37 38  1  0  0  0  0
 38 39  1  0  0  0  0
 39 40  1  0  0  0  0
 40 41  1  0  0  0  0
 41 42  1  0  0  0  0
 42 43  1  0  0  0  0
 43 44  1  0  0  0  0
 44 45  1  0  0  0  0
 45 46  1  0  0  0  0
 46 47  1  0  0  0  0
 47 48  1  0  0  0  0
 48 49  1  0  0  0  0
 49 50  1  0  0  0  0
 50 51  1  0  0  0  0
 51 52  1  0  0  0  0
 52 53  1  0  0  0  0
 53 54  1  0  0  0  0
 54 55  1  0  0  0  0
 55 56  1  0  0  0  0
 56 57  1  0  0  0  0
 57 58  1  0  0  0  0
 58 59  1  0  0  0  0
 59 60  1  0  0  0  0
 60 61  1  0  0  0  0
 61 62  1  0  0  0  0
 62 63  1  0  0  0  0
 63 64  1  0  0  0  0
 64 65  1  0  0  0  0
 65 66  1  0  0  0  0
 66 67  1  0  0  0  0
 67 68  1  0  0  0  0
 68 69  1  0  0  0  0
 69 70  1  0  0  0  0
 70 71  1  0  0  0  0
 71 72  1  0  0  0  0
 72 73  1  0  0  0  0
 73 74  1  0  0  0  0
 74 75  1  0  0  0  0
 75 76  1  0  0  0  0
 76 77  1  0  0  0  0
 77 78  1  0  0  0  0
 78 79  1  0  0  0  0
 79 80  1  0  0  0  0
 80 81  1  0  0  0  0
 81 86  1  0  0  0  0
M  END
$$$$
