
 OpenBabel04232217023D

 91 90  0  0  0  0  0  0  0  0999 V2000
    3.6387   -8.3952    1.9728 O   0  0  0  0  0  0  0  0  0  0  0  0
    5.2792   -8.5819    1.9916 S   0  0  0  0  0  0  0  0  0  0  0  0
    5.9121   -6.8543    2.0331 C   0  0  0  0  0  0  0  0  0  0  0  0
    7.4374   -6.8926    2.0542 C   0  0  0  0  0  0  0  0  0  0  0  0
    8.0481   -5.4750    2.0910 C   0  0  0  0  0  0  0  0  0  0  0  0
    9.5572   -5.4983    2.1264 C   0  0  0  0  0  0  0  0  0  0  0  0
   10.3310   -3.8665    2.1919 S   0  0  0  0  0  0  0  0  0  0  0  0
    9.6354   -2.9862    3.9239 S   0  0  0  0  0  0  0  0  0  0  0  0
   10.3153   -4.1369    5.4979 S   0  0  0  0  0  0  0  0  0  0  0  0
   12.3840   -4.0551    5.5269 S   0  0  0  0  0  0  0  0  0  0  0  0
   13.0359   -5.2465    7.1183 S   0  0  0  0  0  0  0  0  0  0  0  0
   15.1357   -5.2383    7.1072 S   0  0  0  0  0  0  0  0  0  0  0  0
   15.8221   -6.4016    8.7217 S   0  0  0  0  0  0  0  0  0  0  0  0
   17.9305   -6.3935    8.7099 S   0  0  0  0  0  0  0  0  0  0  0  0
   18.6209   -7.5594   10.3260 S   0  0  0  0  0  0  0  0  0  0  0  0
   20.7301   -7.5516   10.3152 S   0  0  0  0  0  0  0  0  0  0  0  0
   21.4207   -8.7177   11.9316 S   0  0  0  0  0  0  0  0  0  0  0  0
   23.5301   -8.7100   11.9209 S   0  0  0  0  0  0  0  0  0  0  0  0
   24.2207   -9.8761   13.5373 S   0  0  0  0  0  0  0  0  0  0  0  0
   26.3301   -9.8683   13.5265 S   0  0  0  0  0  0  0  0  0  0  0  0
   27.0207  -11.0345   15.1430 S   0  0  0  0  0  0  0  0  0  0  0  0
   29.1301  -11.0267   15.1322 S   0  0  0  0  0  0  0  0  0  0  0  0
   29.8207  -12.1928   16.7486 S   0  0  0  0  0  0  0  0  0  0  0  0
   31.9301  -12.1851   16.7379 S   0  0  0  0  0  0  0  0  0  0  0  0
   32.6207  -13.3512   18.3543 S   0  0  0  0  0  0  0  0  0  0  0  0
   34.7301  -13.3434   18.3436 S   0  0  0  0  0  0  0  0  0  0  0  0
   35.4207  -14.5096   19.9600 S   0  0  0  0  0  0  0  0  0  0  0  0
   37.5301  -14.5018   19.9492 S   0  0  0  0  0  0  0  0  0  0  0  0
   38.2207  -15.6679   21.5657 S   0  0  0  0  0  0  0  0  0  0  0  0
   40.3301  -15.6602   21.5549 S   0  0  0  0  0  0  0  0  0  0  0  0
   41.0207  -16.8263   23.1713 S   0  0  0  0  0  0  0  0  0  0  0  0
   43.1301  -16.8185   23.1606 S   0  0  0  0  0  0  0  0  0  0  0  0
   43.8207  -17.9847   24.7770 S   0  0  0  0  0  0  0  0  0  0  0  0
   45.9301  -17.9769   24.7663 S   0  0  0  0  0  0  0  0  0  0  0  0
   46.6207  -19.1431   26.3827 S   0  0  0  0  0  0  0  0  0  0  0  0
   48.7300  -19.1353   26.3719 S   0  0  0  0  0  0  0  0  0  0  0  0
   49.4207  -20.3014   27.9884 S   0  0  0  0  0  0  0  0  0  0  0  0
   51.5300  -20.2937   27.9776 S   0  0  0  0  0  0  0  0  0  0  0  0
   52.2206  -21.4598   29.5940 S   0  0  0  0  0  0  0  0  0  0  0  0
   54.3300  -21.4520   29.5833 S   0  0  0  0  0  0  0  0  0  0  0  0
   55.0206  -22.6182   31.1997 S   0  0  0  0  0  0  0  0  0  0  0  0
   57.1300  -22.6104   31.1890 S   0  0  0  0  0  0  0  0  0  0  0  0
   57.8206  -23.7765   32.8054 S   0  0  0  0  0  0  0  0  0  0  0  0
   59.9300  -23.7688   32.7946 S   0  0  0  0  0  0  0  0  0  0  0  0
   60.6206  -24.9349   34.4111 S   0  0  0  0  0  0  0  0  0  0  0  0
   62.7300  -24.9271   34.4003 S   0  0  0  0  0  0  0  0  0  0  0  0
   63.4206  -26.0933   36.0168 S   0  0  0  0  0  0  0  0  0  0  0  0
   65.5300  -26.0855   36.0060 S   0  0  0  0  0  0  0  0  0  0  0  0
   66.2206  -27.2516   37.6224 S   0  0  0  0  0  0  0  0  0  0  0  0
   68.3300  -27.2439   37.6117 S   0  0  0  0  0  0  0  0  0  0  0  0
   69.0206  -28.4100   39.2281 S   0  0  0  0  0  0  0  0  0  0  0  0
   71.1300  -28.4022   39.2173 S   0  0  0  0  0  0  0  0  0  0  0  0
   71.8206  -29.5684   40.8338 S   0  0  0  0  0  0  0  0  0  0  0  0
   73.9300  -29.5606   40.8230 S   0  0  0  0  0  0  0  0  0  0  0  0
   74.6206  -30.7267   42.4395 S   0  0  0  0  0  0  0  0  0  0  0  0
   76.7300  -30.7190   42.4287 S   0  0  0  0  0  0  0  0  0  0  0  0
   77.4206  -31.8851   44.0451 S   0  0  0  0  0  0  0  0  0  0  0  0
   79.5300  -31.8773   44.0344 S   0  0  0  0  0  0  0  0  0  0  0  0
   80.2206  -33.0435   45.6508 S   0  0  0  0  0  0  0  0  0  0  0  0
   82.3300  -33.0357   45.6400 S   0  0  0  0  0  0  0  0  0  0  0  0
   83.0206  -34.2018   47.2565 S   0  0  0  0  0  0  0  0  0  0  0  0
   85.1299  -34.1941   47.2457 S   0  0  0  0  0  0  0  0  0  0  0  0
   85.8206  -35.3602   48.8622 S   0  0  0  0  0  0  0  0  0  0  0  0
   87.9299  -35.3524   48.8514 S   0  0  0  0  0  0  0  0  0  0  0  0
   88.6205  -36.5186   50.4678 S   0  0  0  0  0  0  0  0  0  0  0  0
   90.7299  -36.5108   50.4571 S   0  0  0  0  0  0  0  0  0  0  0  0
   91.4205  -37.6769   52.0735 S   0  0  0  0  0  0  0  0  0  0  0  0
   93.5299  -37.6692   52.0627 S   0  0  0  0  0  0  0  0  0  0  0  0
   94.2205  -38.8353   53.6792 S   0  0  0  0  0  0  0  0  0  0  0  0
   96.3299  -38.8275   53.6684 S   0  0  0  0  0  0  0  0  0  0  0  0
   97.0205  -39.9937   55.2849 S   0  0  0  0  0  0  0  0  0  0  0  0
   99.1299  -39.9859   55.2741 S   0  0  0  0  0  0  0  0  0  0  0  0
   99.8204  -41.1520   56.8905 S   0  0  0  0  0  0  0  0  0  0  0  0
  101.9294  -41.1441   56.8795 S   0  0  0  0  0  0  0  0  0  0  0  0
  102.6188  -42.3100   58.4951 S   0  0  0  0  0  0  0  0  0  0  0  0
  104.7240  -42.2999   58.4833 S   0  0  0  0  0  0  0  0  0  0  0  0
  105.4082  -43.4635   60.0944 S   0  0  0  0  0  0  0  0  0  0  0  0
  107.5000  -43.4667   60.0428 S   0  0  0  0  0  0  0  0  0  0  0  0
  108.1854  -44.5279   61.6958 S   0  0  0  0  0  0  0  0  0  0  0  0
  110.2586  -44.5654   61.5973 S   0  0  0  0  0  0  0  0  0  0  0  0
  110.8780  -42.6275   61.9134 S   0  0  0  0  0  0  0  0  0  0  0  0
    3.1805   -9.2515    1.9507 H   0  0  0  0  0  0  0  0  0  0  0  0
    5.5171   -6.3369    2.9309 H   0  0  0  0  0  0  0  0  0  0  0  0
    5.5427   -6.3037    1.1422 H   0  0  0  0  0  0  0  0  0  0  0  0
    7.8154   -7.4046    1.1672 H   0  0  0  0  0  0  0  0  0  0  0  0
    7.7899   -7.4364    2.9340 H   0  0  0  0  0  0  0  0  0  0  0  0
    7.6750   -4.9545    2.9761 H   0  0  0  0  0  0  0  0  0  0  0  0
    7.7237   -4.9123    1.2090 H   0  0  0  0  0  0  0  0  0  0  0  0
    9.9699   -6.0219    1.2298 H   0  0  0  0  0  0  0  0  0  0  0  0
    9.9530   -6.0929    3.0030 H   0  0  0  0  0  0  0  0  0  0  0  0
  112.2194  -42.7448   61.8595 H   0  0  0  0  0  0  0  0  0  0  0  0
  1  2  1  0  0  0  0
  1 82  1  0  0  0  0
  2  3  1  0  0  0  0
  3  4  1  0  0  0  0
  3 83  1  0  0  0  0
  3 84  1  0  0  0  0
  4  5  1  0  0  0  0
  4 85  1  0  0  0  0
  4 86  1  0  0  0  0
  5  6  1  0  0  0  0
  5 87  1  0  0  0  0
  5 88  1  0  0  0  0
  6  7  1  0  0  0  0
  6 89  1  0  0  0  0
  6 90  1  0  0  0  0
  7  8  1  0  0  0  0
  8  9  1  0  0  0  0
  9 10  1  0  0  0  0
 10 11  1  0  0  0  0
 11 12  1  0  0  0  0
 12 13  1  0  0  0  0
 13 14  1  0  0  0  0
 14 15  1  0  0  0  0
 15 16  1  0  0  0  0
 16 17  1  0  0  0  0
 17 18  1  0  0  0  0
 18 19  1  0  0  0  0
 19 20  1  0  0  0  0
 20 21  1  0  0  0  0
 21 22  1  0  0  0  0
 22 23  1  0  0  0  0
 23 24  1  0  0  0  0
 24 25  1  0  0  0  0
 25 26  1  0  0  0  0
 26 27  1  0  0  0  0
 27 28  1  0  0  0  0
 28 29  1  0  0  0  0
 29 30  1  0  0  0  0
 30 31  1  0  0  0  0
 31 32  1  0  0  0  0
 32 33  1  0  0  0  0
 33 34  1  0  0  0  0
 34 35  1  0  0  0  0
 35 36  1  0  0  0  0
 36 37  1  0  0  0  0
 37 38  1  0  0  0  0
 38 39  1  0  0  0  0
 39 40  1  0  0  0  0
 40 41  1  0  0  0  0
 41 42  1  0  0  0  0
 42 43  1  0  0  0  0
 43 44  1  0  0  0  0
 44 45  1  0  0  0  0
 45 46  1  0  0  0  0
 46 47  1  0  0  0  0
 47 48  1  0  0  0  0
 48 49  1  0  0  0  0
 49 50  1  0  0  0  0
 50 51  1  0  0  0  0
 51 52  1  0  0  0  0
 52 53  1  0  0  0  0
 53 54  1  0  0  0  0
 54 55  1  0  0  0  0
 55 56  1  0  0  0  0
 56 57  1  0  0  0  0
 57 58  1  0  0  0  0
 58 59  1  0  0  0  0
 59 60  1  0  0  0  0
 60 61  1  0  0  0  0
 61 62  1  0  0  0  0
 62 63  1  0  0  0  0
 63 64  1  0  0  0  0
 64 65  1  0  0  0  0
 65 66  1  0  0  0  0
 66 67  1  0  0  0  0
 67 68  1  0  0  0  0
 68 69  1  0  0  0  0
 69 70  1  0  0  0  0
 70 71  1  0  0  0  0
 71 72  1  0  0  0  0
 72 73  1  0  0  0  0
 73 74  1  0  0  0  0
 74 75  1  0  0  0  0
 75 76  1  0  0  0  0
 76 77  1  0  0  0  0
 77 78  1  0  0  0  0
 78 79  1  0  0  0  0
 79 80  1  0  0  0  0
 80 81  1  0  0  0  0
 81 91  1  0  0  0  0
M  END
$$$$
