
 OpenBabel04232217033D

 85 84  0  0  0  0  0  0  0  0999 V2000
    8.9026    8.1181   -4.3329 S   0  0  0  0  0  0  0  0  0  0  0  0
   10.5658    8.0758   -4.3501 N   0  0  0  0  0  0  0  0  0  0  0  0
   11.2386    8.9458   -3.1115 S   0  0  0  0  0  0  0  0  0  0  0  0
   10.4364    7.9924   -1.4613 S   0  0  0  0  0  0  0  0  0  0  0  0
   11.2588    6.1011   -1.3428 S   0  0  0  0  0  0  0  0  0  0  0  0
   10.6291    5.2867   -2.6625 N   0  0  0  0  0  0  0  0  0  0  0  0
   11.3031    3.7640   -2.7001 S   0  0  0  0  0  0  0  0  0  0  0  0
   10.5844    2.8984   -4.4407 S   0  0  0  0  0  0  0  0  0  0  0  0
   11.3162    3.9246   -6.0916 S   0  0  0  0  0  0  0  0  0  0  0  0
   13.3941    3.8528   -6.1431 S   0  0  0  0  0  0  0  0  0  0  0  0
   14.0619    4.9660   -7.8108 S   0  0  0  0  0  0  0  0  0  0  0  0
   16.1778    4.9659   -7.8119 S   0  0  0  0  0  0  0  0  0  0  0  0
   16.8723    6.0541   -9.4856 S   0  0  0  0  0  0  0  0  0  0  0  0
   18.9856    6.0484   -9.4765 S   0  0  0  0  0  0  0  0  0  0  0  0
   19.6785    7.1360  -11.1480 S   0  0  0  0  0  0  0  0  0  0  0  0
   21.7883    7.1291  -11.1375 S   0  0  0  0  0  0  0  0  0  0  0  0
   22.4808    8.2157  -12.8072 S   0  0  0  0  0  0  0  0  0  0  0  0
   24.5910    8.2067  -12.7935 S   0  0  0  0  0  0  0  0  0  0  0  0
   25.2822    9.2929  -14.4634 S   0  0  0  0  0  0  0  0  0  0  0  0
   27.3921    9.2877  -14.4547 S   0  0  0  0  0  0  0  0  0  0  0  0
   28.0802   10.3754  -16.1264 S   0  0  0  0  0  0  0  0  0  0  0  0
   30.1896   10.3692  -16.1168 S   0  0  0  0  0  0  0  0  0  0  0  0
   30.8806   11.4562  -17.7873 S   0  0  0  0  0  0  0  0  0  0  0  0
   32.9909   11.4490  -17.7762 S   0  0  0  0  0  0  0  0  0  0  0  0
   33.6808   12.5360  -19.4468 S   0  0  0  0  0  0  0  0  0  0  0  0
   35.7902   12.5288  -19.4357 S   0  0  0  0  0  0  0  0  0  0  0  0
   36.4808   13.6158  -21.1063 S   0  0  0  0  0  0  0  0  0  0  0  0
   38.5902   13.6086  -21.0952 S   0  0  0  0  0  0  0  0  0  0  0  0
   39.2808   14.6957  -22.7658 S   0  0  0  0  0  0  0  0  0  0  0  0
   41.3902   14.6884  -22.7547 S   0  0  0  0  0  0  0  0  0  0  0  0
   42.0808   15.7755  -24.4253 S   0  0  0  0  0  0  0  0  0  0  0  0
   44.1902   15.7683  -24.4142 S   0  0  0  0  0  0  0  0  0  0  0  0
   44.8808   16.8553  -26.0848 S   0  0  0  0  0  0  0  0  0  0  0  0
   46.9902   16.8481  -26.0737 S   0  0  0  0  0  0  0  0  0  0  0  0
   47.6808   17.9352  -27.7443 S   0  0  0  0  0  0  0  0  0  0  0  0
   49.7902   17.9279  -27.7332 S   0  0  0  0  0  0  0  0  0  0  0  0
   50.4808   19.0150  -29.4038 S   0  0  0  0  0  0  0  0  0  0  0  0
   52.5902   19.0078  -29.3927 S   0  0  0  0  0  0  0  0  0  0  0  0
   53.2808   20.0948  -31.0633 S   0  0  0  0  0  0  0  0  0  0  0  0
   55.3901   20.0876  -31.0522 S   0  0  0  0  0  0  0  0  0  0  0  0
   56.0808   21.1747  -32.7228 S   0  0  0  0  0  0  0  0  0  0  0  0
   58.1901   21.1675  -32.7117 S   0  0  0  0  0  0  0  0  0  0  0  0
   58.8808   22.2545  -34.3823 S   0  0  0  0  0  0  0  0  0  0  0  0
   60.9901   22.2473  -34.3712 S   0  0  0  0  0  0  0  0  0  0  0  0
   61.6808   23.3344  -36.0419 S   0  0  0  0  0  0  0  0  0  0  0  0
   63.7901   23.3271  -36.0307 S   0  0  0  0  0  0  0  0  0  0  0  0
   64.4807   24.4142  -37.7014 S   0  0  0  0  0  0  0  0  0  0  0  0
   66.5901   24.4070  -37.6903 S   0  0  0  0  0  0  0  0  0  0  0  0
   67.2807   25.4940  -39.3609 S   0  0  0  0  0  0  0  0  0  0  0  0
   69.3901   25.4868  -39.3498 S   0  0  0  0  0  0  0  0  0  0  0  0
   70.0807   26.5739  -41.0204 S   0  0  0  0  0  0  0  0  0  0  0  0
   72.1901   26.5666  -41.0093 S   0  0  0  0  0  0  0  0  0  0  0  0
   72.8807   27.6537  -42.6799 S   0  0  0  0  0  0  0  0  0  0  0  0
   74.9901   27.6465  -42.6688 S   0  0  0  0  0  0  0  0  0  0  0  0
   75.6807   28.7335  -44.3394 S   0  0  0  0  0  0  0  0  0  0  0  0
   77.7901   28.7263  -44.3283 S   0  0  0  0  0  0  0  0  0  0  0  0
   78.4807   29.8134  -45.9989 S   0  0  0  0  0  0  0  0  0  0  0  0
   80.5901   29.8061  -45.9878 S   0  0  0  0  0  0  0  0  0  0  0  0
   81.2807   30.8932  -47.6584 S   0  0  0  0  0  0  0  0  0  0  0  0
   83.3901   30.8860  -47.6473 S   0  0  0  0  0  0  0  0  0  0  0  0
   84.0807   31.9730  -49.3179 S   0  0  0  0  0  0  0  0  0  0  0  0
   86.1901   31.9658  -49.3068 S   0  0  0  0  0  0  0  0  0  0  0  0
   86.8807   33.0529  -50.9774 S   0  0  0  0  0  0  0  0  0  0  0  0
   88.9897   33.0450  -50.9653 S   0  0  0  0  0  0  0  0  0  0  0  0
   89.6807   34.1330  -52.6373 S   0  0  0  0  0  0  0  0  0  0  0  0
   91.7896   34.1258  -52.6263 S   0  0  0  0  0  0  0  0  0  0  0  0
   92.4836   35.2116  -54.2950 S   0  0  0  0  0  0  0  0  0  0  0  0
   94.5932   35.2018  -54.2799 S   0  0  0  0  0  0  0  0  0  0  0  0
   95.2864   36.2887  -55.9502 S   0  0  0  0  0  0  0  0  0  0  0  0
   97.3935   36.2843  -55.9434 S   0  0  0  0  0  0  0  0  0  0  0  0
   98.0803   37.3725  -57.6159 S   0  0  0  0  0  0  0  0  0  0  0  0
  100.1879   37.3651  -57.6045 S   0  0  0  0  0  0  0  0  0  0  0  0
  100.8785   38.4508  -59.2730 S   0  0  0  0  0  0  0  0  0  0  0  0
  102.9855   38.4430  -59.2610 S   0  0  0  0  0  0  0  0  0  0  0  0
  103.6726   39.5289  -60.9300 S   0  0  0  0  0  0  0  0  0  0  0  0
  105.7758   39.5193  -60.9142 S   0  0  0  0  0  0  0  0  0  0  0  0
  106.4579   40.6013  -62.5781 S   0  0  0  0  0  0  0  0  0  0  0  0
  108.5481   40.5614  -62.5587 S   0  0  0  0  0  0  0  0  0  0  0  0
  109.2216   41.6974  -64.1670 S   0  0  0  0  0  0  0  0  0  0  0  0
  111.2927   41.6158  -64.1703 S   0  0  0  0  0  0  0  0  0  0  0  0
  111.9131   42.5777  -62.4564 S   0  0  0  0  0  0  0  0  0  0  0  0
    8.6011    7.3817   -5.4157 H   0  0  0  0  0  0  0  0  0  0  0  0
   10.9157    8.3954   -5.2505 H   0  0  0  0  0  0  0  0  0  0  0  0
   10.9876    5.8244   -3.5388 H   0  0  0  0  0  0  0  0  0  0  0  0
  113.2543   42.4905  -62.5646 H   0  0  0  0  0  0  0  0  0  0  0  0
  1  2  1  0  0  0  0
  1 82  1  0  0  0  0
  2  3  1  0  0  0  0
  2 83  1  0  0  0  0
  3  4  1  0  0  0  0
  4  5  1  0  0  0  0
  5  6  1  0  0  0  0
  6  7  1  0  0  0  0
  6 84  1  0  0  0  0
  7  8  1  0  0  0  0
  8  9  1  0  0  0  0
  9 10  1  0  0  0  0
 10 11  1  0  0  0  0
 11 12  1  0  0  0  0
 12 13  1  0  0  0  0
 13 14  1  0  0  0  0
 14 15  1  0  0  0  0
 15 16  1  0  0  0  0
 16 17  1  0  0  0  0
 17 18  1  0  0  0  0
 18 19  1  0  0  0  0
 19 20  1  0  0  0  0
 20 21  1  0  0  0  0
 21 22  1  0  0  0  0
 22 23  1  0  0  0  0
 23 24  1  0  0  0  0
 24 25  1  0  0  0  0
 25 26  1  0  0  0  0
 26 27  1  0  0  0  0
 27 28  1  0  0  0  0
 28 29  1  0  0  0  0
 29 30  1  0  0  0  0
 30 31  1  0  0  0  0
 31 32  1  0  0  0  0
 32 33  1  0  0  0  0
 33 34  1  0  0  0  0
 34 35  1  0  0  0  0
 35 36  1  0  0  0  0
 36 37  1  0  0  0  0
 37 38  1  0  0  0  0
 38 39  1  0  0  0  0
 39 40  1  0  0  0  0
 40 41  1  0  0  0  0
 41 42  1  0  0  0  0
 42 43  1  0  0  0  0
 43 44  1  0  0  0  0
 44 45  1  0  0  0  0
 45 46  1  0  0  0  0
 46 47  1  0  0  0  0
 47 48  1  0  0  0  0
 48 49  1  0  0  0  0
 49 50  1  0  0  0  0
 50 51  1  0  0  0  0
 51 52  1  0  0  0  0
 52 53  1  0  0  0  0
 53 54  1  0  0  0  0
 54 55  1  0  0  0  0
 55 56  1  0  0  0  0
 56 57  1  0  0  0  0
 57 58  1  0  0  0  0
 58 59  1  0  0  0  0
 59 60  1  0  0  0  0
 60 61  1  0  0  0  0
 61 62  1  0  0  0  0
 62 63  1  0  0  0  0
 63 64  1  0  0  0  0
 64 65  1  0  0  0  0
 65 66  1  0  0  0  0
 66 67  1  0  0  0  0
 67 68  1  0  0  0  0
 68 69  1  0  0  0  0
 69 70  1  0  0  0  0
 70 71  1  0  0  0  0
 71 72  1  0  0  0  0
 72 73  1  0  0  0  0
 73 74  1  0  0  0  0
 74 75  1  0  0  0  0
 75 76  1  0  0  0  0
 76 77  1  0  0  0  0
 77 78  1  0  0  0  0
 78 79  1  0  0  0  0
 79 80  1  0  0  0  0
 80 81  1  0  0  0  0
 81 85  1  0  0  0  0
M  END
$$$$
