
 OpenBabel04232216483D

 84 85  0  0  1  0  0  0  0  0999 V2000
    6.4776    2.1263    0.6239 C   0  0  0  0  0  0  0  0  0  0  0  0
    8.2328    2.1986    0.7081 C   0  0  0  0  0  0  0  0  0  0  0  0
    9.5677    3.4379    0.8802 C   0  0  0  0  0  0  0  0  0  0  0  0
   11.0773    3.6193    1.4384 C   0  0  0  0  0  0  0  0  0  0  0  0
   12.0228    4.8843    2.5633 C   0  0  3  0  0  0  0  0  0  0  0  0
   13.9650    5.5359    3.0230 C   0  0  0  0  0  0  0  0  0  0  0  0
   15.4756    6.5967    3.9520 C   0  0  0  0  0  0  0  0  0  0  0  0
   17.3769    6.6796    4.6519 C   0  0  0  0  0  0  0  0  0  0  0  0
   18.3174    6.9034    6.2466 C   0  0  0  0  0  0  0  0  0  0  0  0
   18.3531    5.5452    6.9208 C   0  0  0  0  0  0  0  0  0  0  0  0
   16.9340    5.6016    7.4168 C   0  0  0  0  0  0  0  0  0  0  0  0
   16.1507    4.6997    6.5449 C   0  0  0  0  0  0  0  0  0  0  0  0
   14.7731    5.2149    6.7234 C   0  0  0  0  0  0  0  0  0  0  0  0
   13.9032    4.3160    5.9499 C   0  0  0  0  0  0  0  0  0  0  0  0
   12.6135    4.9752    6.0908 C   0  0  0  0  0  0  0  0  0  0  0  0
   11.5354    4.2252    6.0225 C   0  0  0  0  0  0  0  0  0  0  0  0
   10.2986    4.9051    6.0914 C   0  0  0  0  0  0  0  0  0  0  0  0
    9.1832    4.1974    6.0223 C   0  0  0  0  0  0  0  0  0  0  0  0
    8.0532    4.8148    5.3559 C   0  0  0  0  0  0  0  0  0  0  0  0
    7.8971    4.4934    4.0510 C   0  0  0  0  0  0  0  0  0  0  0  0
    6.4428    3.9077    3.7263 C   0  0  0  0  0  0  0  0  0  0  0  0
    5.9970    2.4890    4.3049 C   0  0  0  0  0  0  0  0  0  0  0  0
    6.1526    2.3229    5.8234 C   0  0  0  0  0  0  0  0  0  0  0  0
    5.2758    3.2871    6.6216 C   0  0  0  0  0  0  0  0  0  0  0  0
    3.8088    2.9014    6.5090 C   0  0  0  0  0  0  0  0  0  0  0  0
    2.9073    3.8850    7.2376 C   0  0  0  0  0  0  0  0  0  0  0  0
    1.4629    3.4394    7.0989 C   0  0  0  0  0  0  0  0  0  0  0  0
   10.3193    5.0343    3.1267 C   0  0  0  0  0  0  0  0  0  0  0  0
    9.2677    4.0543    3.4647 C   0  0  0  0  0  0  0  0  0  0  0  0
    9.2343    2.5131    3.4124 C   0  0  0  0  0  0  0  0  0  0  0  0
   10.1087    1.4945    3.5001 C   0  0  0  0  0  0  0  0  0  0  0  0
   10.4367    0.6691    2.2983 C   0  0  0  0  0  0  0  0  0  0  0  0
    9.8088    0.4964    1.1246 C   0  0  0  0  0  0  0  0  0  0  0  0
    8.4974    0.8824    0.8397 C   0  0  0  0  0  0  0  0  0  0  0  0
    5.8418    2.6233    1.3673 H   0  0  0  0  0  0  0  0  0  0  0  0
    6.1060    1.0766    0.8517 H   0  0  0  0  0  0  0  0  0  0  0  0
    6.0173    2.2398   -0.3724 H   0  0  0  0  0  0  0  0  0  0  0  0
    8.9142    4.3158    0.9342 H   0  0  0  0  0  0  0  0  0  0  0  0
   11.4799    2.7216    1.9043 H   0  0  0  0  0  0  0  0  0  0  0  0
   12.1613    4.3041    3.4917 H   0  0  0  0  0  0  0  0  0  0  0  0
   13.4456    5.9940    3.9314 H   0  0  0  0  0  0  0  0  0  0  0  0
   14.4301    4.5638    3.0840 H   0  0  0  0  0  0  0  0  0  0  0  0
   15.7290    7.2767    3.1347 H   0  0  0  0  0  0  0  0  0  0  0  0
   15.0721    7.0378    4.7365 H   0  0  0  0  0  0  0  0  0  0  0  0
   18.0157    5.8993    4.2112 H   0  0  0  0  0  0  0  0  0  0  0  0
   17.7655    7.6270    4.2152 H   0  0  0  0  0  0  0  0  0  0  0  0
   19.2973    7.4078    6.0726 H   0  0  0  0  0  0  0  0  0  0  0  0
   18.0557    7.5403    7.1411 H   0  0  0  0  0  0  0  0  0  0  0  0
   19.0110    5.3401    7.7784 H   0  0  0  0  0  0  0  0  0  0  0  0
   18.5714    4.7775    6.1673 H   0  0  0  0  0  0  0  0  0  0  0  0
   16.4935    6.6184    7.3061 H   0  0  0  0  0  0  0  0  0  0  0  0
   16.8006    5.4189    8.4824 H   0  0  0  0  0  0  0  0  0  0  0  0
   16.2885    3.6655    6.8462 H   0  0  0  0  0  0  0  0  0  0  0  0
   16.4378    4.7382    5.4875 H   0  0  0  0  0  0  0  0  0  0  0  0
   14.6734    6.2641    6.4031 H   0  0  0  0  0  0  0  0  0  0  0  0
   14.4925    5.2335    7.7793 H   0  0  0  0  0  0  0  0  0  0  0  0
   13.9556    3.3007    6.3430 H   0  0  0  0  0  0  0  0  0  0  0  0
   14.1925    4.2290    4.9151 H   0  0  0  0  0  0  0  0  0  0  0  0
   12.5337    6.0543    6.2325 H   0  0  0  0  0  0  0  0  0  0  0  0
   11.6393    3.1798    5.7382 H   0  0  0  0  0  0  0  0  0  0  0  0
   10.2712    5.9703    5.8799 H   0  0  0  0  0  0  0  0  0  0  0  0
    9.2841    3.1047    5.9597 H   0  0  0  0  0  0  0  0  0  0  0  0
    7.2561    5.1149    6.0059 H   0  0  0  0  0  0  0  0  0  0  0  0
    6.2434    3.9180    2.6548 H   0  0  0  0  0  0  0  0  0  0  0  0
    5.6852    4.6136    4.1027 H   0  0  0  0  0  0  0  0  0  0  0  0
    6.5182    1.6594    3.8159 H   0  0  0  0  0  0  0  0  0  0  0  0
    4.9441    2.2890    4.0458 H   0  0  0  0  0  0  0  0  0  0  0  0
    7.1985    2.4508    6.0931 H   0  0  0  0  0  0  0  0  0  0  0  0
    5.9208    1.2929    6.1270 H   0  0  0  0  0  0  0  0  0  0  0  0
    5.3953    4.3149    6.2726 H   0  0  0  0  0  0  0  0  0  0  0  0
    5.5903    3.2800    7.6718 H   0  0  0  0  0  0  0  0  0  0  0  0
    3.6709    1.8906    6.9092 H   0  0  0  0  0  0  0  0  0  0  0  0
    3.5011    2.8780    5.4585 H   0  0  0  0  0  0  0  0  0  0  0  0
    3.0252    4.8878    6.8095 H   0  0  0  0  0  0  0  0  0  0  0  0
    3.1850    3.9423    8.2955 H   0  0  0  0  0  0  0  0  0  0  0  0
    1.1688    3.4034    6.0441 H   0  0  0  0  0  0  0  0  0  0  0  0
    0.7965    4.1307    7.6193 H   0  0  0  0  0  0  0  0  0  0  0  0
    1.3268    2.4385    7.5216 H   0  0  0  0  0  0  0  0  0  0  0  0
    9.9202    5.8805    2.5382 H   0  0  0  0  0  0  0  0  0  0  0  0
    8.2730    2.2120    3.0041 H   0  0  0  0  0  0  0  0  0  0  0  0
   11.0128    1.6615    4.0647 H   0  0  0  0  0  0  0  0  0  0  0  0
   11.5108    0.5702    2.1771 H   0  0  0  0  0  0  0  0  0  0  0  0
   10.3957    0.4534    0.2082 H   0  0  0  0  0  0  0  0  0  0  0  0
    7.7575    0.0653    0.7797 H   0  0  0  0  0  0  0  0  0  0  0  0
  1  2  1  0  0  0  0
  1 35  1  0  0  0  0
  1 36  1  0  0  0  0
  1 37  1  0  0  0  0
  2  3  1  0  0  0  0
  2 34  2  3  0  0  0
  3  4  2  3  0  0  0
  3 38  1  0  0  0  0
  4  5  1  0  0  0  0
  4 39  1  0  0  0  0
  5  6  1  0  0  0  0
  5 28  1  0  0  0  0
  5 40  1  0  0  0  0
  6  7  1  0  0  0  0
  6 41  1  0  0  0  0
  6 42  1  0  0  0  0
  7  8  1  0  0  0  0
  7 43  1  0  0  0  0
  7 44  1  0  0  0  0
  8  9  1  0  0  0  0
  8 45  1  0  0  0  0
  8 46  1  0  0  0  0
  9 10  1  0  0  0  0
  9 47  1  0  0  0  0
  9 48  1  0  0  0  0
 10 11  1  0  0  0  0
 10 49  1  0  0  0  0
 10 50  1  0  0  0  0
 11 12  1  0  0  0  0
 11 51  1  0  0  0  0
 11 52  1  0  0  0  0
 12 13  1  0  0  0  0
 12 53  1  0  0  0  0
 12 54  1  0  0  0  0
 13 14  1  0  0  0  0
 13 55  1  0  0  0  0
 13 56  1  0  0  0  0
 14 15  1  0  0  0  0
 14 57  1  0  0  0  0
 14 58  1  0  0  0  0
 15 16  2  3  0  0  0
 15 59  1  0  0  0  0
 16 17  1  0  0  0  0
 16 60  1  0  0  0  0
 17 18  2  3  0  0  0
 17 61  1  0  0  0  0
 18 19  1  0  0  0  0
 18 62  1  0  0  0  0
 19 20  2  3  0  0  0
 19 63  1  0  0  0  0
 20 21  1  0  0  0  0
 20 29  1  0  0  0  0
 21 22  1  0  0  0  0
 21 64  1  0  0  0  0
 21 65  1  0  0  0  0
 22 23  1  0  0  0  0
 22 66  1  0  0  0  0
 22 67  1  0  0  0  0
 23 24  1  0  0  0  0
 23 68  1  0  0  0  0
 23 69  1  0  0  0  0
 24 25  1  0  0  0  0
 24 70  1  0  0  0  0
 24 71  1  0  0  0  0
 25 26  1  0  0  0  0
 25 72  1  0  0  0  0
 25 73  1  0  0  0  0
 26 27  1  0  0  0  0
 26 74  1  0  0  0  0
 26 75  1  0  0  0  0
 27 76  1  0  0  0  0
 27 77  1  0  0  0  0
 27 78  1  0  0  0  0
 28 29  2  3  0  0  0
 28 79  1  0  0  0  0
 29 30  1  0  0  0  0
 30 31  2  3  0  0  0
 30 80  1  0  0  0  0
 31 32  1  0  0  0  0
 31 81  1  0  0  0  0
 32 33  2  3  0  0  0
 32 82  1  0  0  0  0
 33 34  1  0  0  0  0
 33 83  1  0  0  0  0
 34 84  1  0  0  0  0
M  END
$$$$
