
 OpenBabel04232216403D

 31 31  0  0  0  0  0  0  0  0999 V2000
    1.4490    0.8423    0.4959 C   0  0  0  0  0  0  0  0  0  0  0  0
    2.3090   -0.0262   -0.0508 C   0  0  0  0  0  0  0  0  0  0  0  0
    3.0993   -1.0201    0.7483 C   0  0  0  0  0  0  0  0  0  0  0  0
    4.6024   -0.8080    0.5713 C   0  0  0  0  0  0  0  0  0  0  0  0
    5.3929   -1.8224    1.3929 C   0  0  0  0  0  0  0  0  0  0  0  0
    6.8951   -1.6135    1.2228 C   0  0  0  0  0  0  0  0  0  0  0  0
    7.6861   -2.6275    2.0446 C   0  0  0  0  0  0  0  0  0  0  0  0
    9.1893   -2.4218    1.8663 C   0  0  0  0  0  0  0  0  0  0  0  0
    9.9706   -3.4034    2.6879 C   0  0  0  0  0  0  0  0  0  0  0  0
   11.4763   -3.3818    2.6621 C   0  0  0  0  0  0  0  0  0  0  0  0
   10.7402   -2.9202    3.8886 C   0  0  0  0  0  0  0  0  0  0  0  0
    0.8955    1.5414   -0.1279 H   0  0  0  0  0  0  0  0  0  0  0  0
    1.2718    0.8779    1.5645 H   0  0  0  0  0  0  0  0  0  0  0  0
    2.4494   -0.0301   -1.1284 H   0  0  0  0  0  0  0  0  0  0  0  0
    2.8256   -2.0291    0.4192 H   0  0  0  0  0  0  0  0  0  0  0  0
    2.8443   -0.9516    1.8136 H   0  0  0  0  0  0  0  0  0  0  0  0
    4.8745    0.2103    0.8805 H   0  0  0  0  0  0  0  0  0  0  0  0
    4.8708   -0.9018   -0.4894 H   0  0  0  0  0  0  0  0  0  0  0  0
    5.1236   -2.8388    1.0806 H   0  0  0  0  0  0  0  0  0  0  0  0
    5.1253   -1.7276    2.4523 H   0  0  0  0  0  0  0  0  0  0  0  0
    7.1635   -0.5970    1.5347 H   0  0  0  0  0  0  0  0  0  0  0  0
    7.1624   -1.7095    0.1637 H   0  0  0  0  0  0  0  0  0  0  0  0
    7.4140   -3.6450    1.7366 H   0  0  0  0  0  0  0  0  0  0  0  0
    7.4219   -2.5381    3.1058 H   0  0  0  0  0  0  0  0  0  0  0  0
    9.4522   -1.3936    2.1451 H   0  0  0  0  0  0  0  0  0  0  0  0
    9.4542   -2.5441    0.8096 H   0  0  0  0  0  0  0  0  0  0  0  0
    9.5072   -4.3837    2.7268 H   0  0  0  0  0  0  0  0  0  0  0  0
   11.9724   -2.6388    2.0485 H   0  0  0  0  0  0  0  0  0  0  0  0
   11.9967   -4.3321    2.7135 H   0  0  0  0  0  0  0  0  0  0  0  0
   10.7508   -1.8588    4.1101 H   0  0  0  0  0  0  0  0  0  0  0  0
   10.7515   -3.5546    4.7669 H   0  0  0  0  0  0  0  0  0  0  0  0
  1  2  2  0  0  0  0
  1 12  1  0  0  0  0
  1 13  1  0  0  0  0
  2  3  1  0  0  0  0
  2 14  1  0  0  0  0
  3  4  1  0  0  0  0
  3 15  1  0  0  0  0
  3 16  1  0  0  0  0
  4  5  1  0  0  0  0
  4 17  1  0  0  0  0
  4 18  1  0  0  0  0
  5  6  1  0  0  0  0
  5 19  1  0  0  0  0
  5 20  1  0  0  0  0
  6  7  1  0  0  0  0
  6 21  1  0  0  0  0
  6 22  1  0  0  0  0
  7  8  1  0  0  0  0
  7 23  1  0  0  0  0
  7 24  1  0  0  0  0
  8  9  1  0  0  0  0
  8 25  1  0  0  0  0
  8 26  1  0  0  0  0
  9 10  1  0  0  0  0
  9 11  1  0  0  0  0
  9 27  1  0  0  0  0
 10 11  1  0  0  0  0
 10 28  1  0  0  0  0
 10 29  1  0  0  0  0
 11 30  1  0  0  0  0
 11 31  1  0  0  0  0
M  END
$$$$
