
 OpenBabel04232216493D

 74 75  0  0  1  0  0  0  0  0999 V2000
    0.9213    0.4766   -0.7539 C   0  0  0  0  0  0  0  0  0  0  0  0
    2.4232    0.2676   -0.5334 C   0  0  3  0  0  0  0  0  0  0  0  0
    2.9129   -0.9979   -1.2435 C   0  0  0  0  0  0  0  0  0  0  0  0
    4.4150   -1.2872   -1.1379 C   0  0  0  0  0  0  0  0  0  0  0  0
    5.2814   -0.3077   -1.9166 C   0  0  0  0  0  0  0  0  0  0  0  0
    5.6648    0.9893   -1.2071 C   0  0  0  0  0  0  0  0  0  0  0  0
    4.5968    1.6827   -0.3460 C   0  0  3  0  0  0  0  0  0  0  0  0
    4.7295    1.2684    1.1322 C   0  0  0  0  0  0  0  0  0  0  0  0
    3.7137    1.9345    2.0542 C   0  0  0  0  0  0  0  0  0  0  0  0
    3.8879    1.4144    3.4749 C   0  0  0  0  0  0  0  0  0  0  0  0
    2.8424    2.0431    4.3775 C   0  0  0  0  0  0  0  0  0  0  0  0
    3.0036    1.5576    5.8055 C   0  0  0  0  0  0  0  0  0  0  0  0
    1.9778    2.2257    6.6944 C   0  0  0  0  0  0  0  0  0  0  0  0
    0.8719    2.5552    6.2682 O   0  0  0  0  0  0  0  0  0  0  0  0
    2.3307    2.4314    8.1239 C   0  0  0  0  0  0  0  0  0  0  0  0
    1.3259    2.5692    8.9999 C   0  0  0  0  0  0  0  0  0  0  0  0
    1.5927    2.7675   10.4036 C   0  0  0  0  0  0  0  0  0  0  0  0
    2.8196    3.0951   10.8439 C   0  0  0  0  0  0  0  0  0  0  0  0
    3.0741    3.3389   12.3110 C   0  0  0  0  0  0  0  0  0  0  0  0
    3.5918    4.7491   12.5797 C   0  0  0  0  0  0  0  0  0  0  0  0
    3.7988    4.9826   14.0745 C   0  0  0  0  0  0  0  0  0  0  0  0
    4.3215    6.3952   14.3170 C   0  0  0  0  0  0  0  0  0  0  0  0
    4.5456    6.6556   15.8023 C   0  0  0  0  0  0  0  0  0  0  0  0
    5.0721    8.0701   16.0338 C   0  0  0  0  0  0  0  0  0  0  0  0
    5.2963    8.3331   17.5121 C   0  0  0  0  0  0  0  0  0  0  0  0
    3.9805    3.2235    9.8903 C   0  0  0  0  0  0  0  0  0  0  0  0
    3.7705    2.5141    8.5463 C   0  0  0  0  0  0  0  0  0  0  0  0
    3.1784    1.5480   -0.9287 C   0  0  0  0  0  0  0  0  0  0  0  0
    0.3534   -0.3857   -0.3873 H   0  0  0  0  0  0  0  0  0  0  0  0
    0.6840    0.6233   -1.8123 H   0  0  0  0  0  0  0  0  0  0  0  0
    0.5693    1.3558   -0.2012 H   0  0  0  0  0  0  0  0  0  0  0  0
    2.5282    0.0757    0.5355 H   0  0  0  0  0  0  0  0  0  0  0  0
    2.6258   -0.9704   -2.2972 H   0  0  0  0  0  0  0  0  0  0  0  0
    2.3808   -1.8545   -0.8039 H   0  0  0  0  0  0  0  0  0  0  0  0
    4.5756   -2.2864   -1.5662 H   0  0  0  0  0  0  0  0  0  0  0  0
    4.7379   -1.3724   -0.0953 H   0  0  0  0  0  0  0  0  0  0  0  0
    4.7904   -0.0675   -2.8703 H   0  0  0  0  0  0  0  0  0  0  0  0
    6.2166   -0.8144   -2.1920 H   0  0  0  0  0  0  0  0  0  0  0  0
    5.9802    1.6974   -1.9866 H   0  0  0  0  0  0  0  0  0  0  0  0
    6.5660    0.8174   -0.6041 H   0  0  0  0  0  0  0  0  0  0  0  0
    4.8431    2.7547   -0.3736 H   0  0  0  0  0  0  0  0  0  0  0  0
    5.7390    1.5209    1.4841 H   0  0  0  0  0  0  0  0  0  0  0  0
    4.6472    0.1843    1.2433 H   0  0  0  0  0  0  0  0  0  0  0  0
    2.6852    1.7316    1.7448 H   0  0  0  0  0  0  0  0  0  0  0  0
    3.8357    3.0241    2.0253 H   0  0  0  0  0  0  0  0  0  0  0  0
    4.8960    1.6479    3.8367 H   0  0  0  0  0  0  0  0  0  0  0  0
    3.7780    0.3216    3.4939 H   0  0  0  0  0  0  0  0  0  0  0  0
    1.8367    1.7990    4.0086 H   0  0  0  0  0  0  0  0  0  0  0  0
    2.9346    3.1364    4.3456 H   0  0  0  0  0  0  0  0  0  0  0  0
    4.0238    1.7854    6.1268 H   0  0  0  0  0  0  0  0  0  0  0  0
    2.8638    0.4740    5.8767 H   0  0  0  0  0  0  0  0  0  0  0  0
    0.2847    2.5225    8.6897 H   0  0  0  0  0  0  0  0  0  0  0  0
    0.7434    2.6812   11.0867 H   0  0  0  0  0  0  0  0  0  0  0  0
    3.7914    2.5945   12.6774 H   0  0  0  0  0  0  0  0  0  0  0  0
    2.1484    3.1873   12.8833 H   0  0  0  0  0  0  0  0  0  0  0  0
    2.8820    5.4887   12.1870 H   0  0  0  0  0  0  0  0  0  0  0  0
    4.5435    4.9087   12.0576 H   0  0  0  0  0  0  0  0  0  0  0  0
    4.5120    4.2477   14.4678 H   0  0  0  0  0  0  0  0  0  0  0  0
    2.8532    4.8358   14.6092 H   0  0  0  0  0  0  0  0  0  0  0  0
    3.6053    7.1241   13.9185 H   0  0  0  0  0  0  0  0  0  0  0  0
    5.2631    6.5360   13.7725 H   0  0  0  0  0  0  0  0  0  0  0  0
    5.2602    5.9250   16.2010 H   0  0  0  0  0  0  0  0  0  0  0  0
    3.6036    6.5175   16.3472 H   0  0  0  0  0  0  0  0  0  0  0  0
    4.3592    8.8031   15.6381 H   0  0  0  0  0  0  0  0  0  0  0  0
    6.0155    8.2109   15.4929 H   0  0  0  0  0  0  0  0  0  0  0  0
    4.3620    8.2264   18.0726 H   0  0  0  0  0  0  0  0  0  0  0  0
    5.6726    9.3491   17.6644 H   0  0  0  0  0  0  0  0  0  0  0  0
    6.0277    7.6316   17.9259 H   0  0  0  0  0  0  0  0  0  0  0  0
    4.8989    2.8341   10.3444 H   0  0  0  0  0  0  0  0  0  0  0  0
    4.1500    4.2911    9.6986 H   0  0  0  0  0  0  0  0  0  0  0  0
    4.1688    1.4920    8.6114 H   0  0  0  0  0  0  0  0  0  0  0  0
    4.3684    3.0474    7.7987 H   0  0  0  0  0  0  0  0  0  0  0  0
    3.2118    1.6474   -2.0229 H   0  0  0  0  0  0  0  0  0  0  0  0
    2.6062    2.4210   -0.5849 H   0  0  0  0  0  0  0  0  0  0  0  0
  1  2  1  0  0  0  0
  1 29  1  0  0  0  0
  1 30  1  0  0  0  0
  1 31  1  0  0  0  0
  2  3  1  0  0  0  0
  2 28  1  0  0  0  0
  2 32  1  0  0  0  0
  3  4  1  0  0  0  0
  3 33  1  0  0  0  0
  3 34  1  0  0  0  0
  4  5  1  0  0  0  0
  4 35  1  0  0  0  0
  4 36  1  0  0  0  0
  5  6  1  0  0  0  0
  5 37  1  0  0  0  0
  5 38  1  0  0  0  0
  6  7  1  0  0  0  0
  6 39  1  0  0  0  0
  6 40  1  0  0  0  0
  7  8  1  0  0  0  0
  7 28  1  0  0  0  0
  7 41  1  0  0  0  0
  8  9  1  0  0  0  0
  8 42  1  0  0  0  0
  8 43  1  0  0  0  0
  9 10  1  0  0  0  0
  9 44  1  0  0  0  0
  9 45  1  0  0  0  0
 10 11  1  0  0  0  0
 10 46  1  0  0  0  0
 10 47  1  0  0  0  0
 11 12  1  0  0  0  0
 11 48  1  0  0  0  0
 11 49  1  0  0  0  0
 12 13  1  0  0  0  0
 12 50  1  0  0  0  0
 12 51  1  0  0  0  0
 13 14  2  0  0  0  0
 13 15  1  0  0  0  0
 15 16  2  0  0  0  0
 15 27  1  0  0  0  0
 16 17  1  0  0  0  0
 16 52  1  0  0  0  0
 17 18  2  0  0  0  0
 17 53  1  0  0  0  0
 18 19  1  0  0  0  0
 18 26  1  0  0  0  0
 19 20  1  0  0  0  0
 19 54  1  0  0  0  0
 19 55  1  0  0  0  0
 20 21  1  0  0  0  0
 20 56  1  0  0  0  0
 20 57  1  0  0  0  0
 21 22  1  0  0  0  0
 21 58  1  0  0  0  0
 21 59  1  0  0  0  0
 22 23  1  0  0  0  0
 22 60  1  0  0  0  0
 22 61  1  0  0  0  0
 23 24  1  0  0  0  0
 23 62  1  0  0  0  0
 23 63  1  0  0  0  0
 24 25  1  0  0  0  0
 24 64  1  0  0  0  0
 24 65  1  0  0  0  0
 25 66  1  0  0  0  0
 25 67  1  0  0  0  0
 25 68  1  0  0  0  0
 26 27  1  0  0  0  0
 26 69  1  0  0  0  0
 26 70  1  0  0  0  0
 27 71  1  0  0  0  0
 27 72  1  0  0  0  0
 28 73  1  0  0  0  0
 28 74  1  0  0  0  0
M  END
$$$$
