
 OpenBabel04232216403D

 59 60  0  0  0  0  0  0  0  0999 V2000
    6.6658   -1.8543   -3.9357 C   0  0  0  0  0  0  0  0  0  0  0  0
    8.0115   -1.8255   -4.1183 C   0  0  0  0  0  0  0  0  0  0  0  0
    9.2785   -0.9376   -4.2674 C   0  0  0  0  0  0  0  0  0  0  0  0
    9.3570    0.4900   -4.8336 N   0  0  0  0  0  0  0  0  0  0  0  0
    8.3510    1.4705   -4.2668 C   0  0  0  0  0  0  0  0  0  0  0  0
    6.7829    1.1226   -4.7036 C   0  0  0  0  0  0  0  0  0  0  0  0
    5.5045    1.9754   -5.0409 C   0  0  0  0  0  0  0  0  0  0  0  0
    4.8140    1.7132   -6.4043 C   0  0  0  0  0  0  0  0  0  0  0  0
    4.5422    0.2541   -6.8293 C   0  0  0  0  0  0  0  0  0  0  0  0
    3.3773   -0.4613   -6.1319 C   0  0  0  0  0  0  0  0  0  0  0  0
    3.2607   -1.9124   -6.6074 C   0  0  0  0  0  0  0  0  0  0  0  0
    8.2320    1.4587   -2.9138 C   0  0  0  0  0  0  0  0  0  0  0  0
    8.3738    2.6024   -2.0731 C   0  0  0  0  0  0  0  0  0  0  0  0
    9.4488    2.5000   -1.2740 C   0  0  0  0  0  0  0  0  0  0  0  0
   10.4455    3.4746   -1.5989 C   0  0  0  0  0  0  0  0  0  0  0  0
   11.7164    3.5539   -1.1729 C   0  0  0  0  0  0  0  0  0  0  0  0
   12.5382    4.5040   -1.9107 C   0  0  0  0  0  0  0  0  0  0  0  0
   13.5715    3.9978   -2.6053 C   0  0  0  0  0  0  0  0  0  0  0  0
   12.9325    3.5768   -3.9008 C   0  0  0  0  0  0  0  0  0  0  0  0
   13.2352    4.4741   -5.0950 C   0  0  0  0  0  0  0  0  0  0  0  0
   12.1764    2.4779   -3.8567 N   0  0  0  0  0  0  0  0  0  0  0  0
   11.9638    1.6817   -5.0085 C   0  0  0  0  0  0  0  0  0  0  0  0
   13.2683    1.6079   -5.6898 C   0  0  0  0  0  0  0  0  0  0  0  0
   13.5235    0.9320   -6.8516 C   0  0  0  0  0  0  0  0  0  0  0  0
   12.5849   -0.0185   -7.1106 C   0  0  0  0  0  0  0  0  0  0  0  0
   12.8205   -0.8925   -8.0922 F   0  0  0  0  0  0  0  0  0  0  0  0
   11.3490   -0.1660   -6.3447 C   0  0  0  0  0  0  0  0  0  0  0  0
   10.8828    0.7415   -5.3305 C   0  0  0  0  0  0  0  0  0  0  0  0
    6.1746   -2.8341   -3.8392 H   0  0  0  0  0  0  0  0  0  0  0  0
    5.9454   -1.0658   -3.8582 H   0  0  0  0  0  0  0  0  0  0  0  0
    8.3734   -2.8573   -4.0989 H   0  0  0  0  0  0  0  0  0  0  0  0
    9.9017   -1.5802   -4.8847 H   0  0  0  0  0  0  0  0  0  0  0  0
    9.7488   -0.9176   -3.2761 H   0  0  0  0  0  0  0  0  0  0  0  0
    6.3806    0.7366   -3.7504 H   0  0  0  0  0  0  0  0  0  0  0  0
    6.8337    0.2829   -5.3845 H   0  0  0  0  0  0  0  0  0  0  0  0
    5.6593    3.0461   -4.8839 H   0  0  0  0  0  0  0  0  0  0  0  0
    4.7229    1.7006   -4.3082 H   0  0  0  0  0  0  0  0  0  0  0  0
    5.4319    2.1806   -7.1789 H   0  0  0  0  0  0  0  0  0  0  0  0
    3.8522    2.2486   -6.4213 H   0  0  0  0  0  0  0  0  0  0  0  0
    5.4476   -0.3463   -6.7281 H   0  0  0  0  0  0  0  0  0  0  0  0
    4.3220    0.2623   -7.9048 H   0  0  0  0  0  0  0  0  0  0  0  0
    2.4334    0.0513   -6.3539 H   0  0  0  0  0  0  0  0  0  0  0  0
    3.5076   -0.4536   -5.0461 H   0  0  0  0  0  0  0  0  0  0  0  0
    3.0650   -1.9632   -7.6838 H   0  0  0  0  0  0  0  0  0  0  0  0
    2.4379   -2.4227   -6.0957 H   0  0  0  0  0  0  0  0  0  0  0  0
    4.1797   -2.4700   -6.4018 H   0  0  0  0  0  0  0  0  0  0  0  0
    8.1181    0.5172   -2.3800 H   0  0  0  0  0  0  0  0  0  0  0  0
    8.0844    3.5532   -2.5198 H   0  0  0  0  0  0  0  0  0  0  0  0
    9.8074    1.5515   -0.8873 H   0  0  0  0  0  0  0  0  0  0  0  0
   10.2024    4.0248   -2.5181 H   0  0  0  0  0  0  0  0  0  0  0  0
   12.1451    2.8080   -0.5141 H   0  0  0  0  0  0  0  0  0  0  0  0
   11.9185    5.2070   -2.4826 H   0  0  0  0  0  0  0  0  0  0  0  0
   14.2260    3.2494   -2.1713 H   0  0  0  0  0  0  0  0  0  0  0  0
   12.2637    4.7583   -5.5155 H   0  0  0  0  0  0  0  0  0  0  0  0
   13.8259    4.0009   -5.8801 H   0  0  0  0  0  0  0  0  0  0  0  0
   13.7668    5.3652   -4.7875 H   0  0  0  0  0  0  0  0  0  0  0  0
   14.1615    2.0809   -5.2676 H   0  0  0  0  0  0  0  0  0  0  0  0
   14.4699    1.0207   -7.3939 H   0  0  0  0  0  0  0  0  0  0  0  0
   10.8677   -1.1074   -6.5313 H   0  0  0  0  0  0  0  0  0  0  0  0
  1  2  2  0  0  0  0
  1 29  1  0  0  0  0
  1 30  1  0  0  0  0
  2  3  1  0  0  0  0
  2 31  1  0  0  0  0
  3  4  1  0  0  0  0
  3 32  1  0  0  0  0
  3 33  1  0  0  0  0
  4  5  1  0  0  0  0
  4 28  1  0  0  0  0
  5  6  1  0  0  0  0
  5 12  2  0  0  0  0
  6  7  1  0  0  0  0
  6 34  1  0  0  0  0
  6 35  1  0  0  0  0
  7  8  1  0  0  0  0
  7 36  1  0  0  0  0
  7 37  1  0  0  0  0
  8  9  1  0  0  0  0
  8 38  1  0  0  0  0
  8 39  1  0  0  0  0
  9 10  1  0  0  0  0
  9 40  1  0  0  0  0
  9 41  1  0  0  0  0
 10 11  1  0  0  0  0
 10 42  1  0  0  0  0
 10 43  1  0  0  0  0
 11 44  1  0  0  0  0
 11 45  1  0  0  0  0
 11 46  1  0  0  0  0
 12 13  1  0  0  0  0
 12 47  1  0  0  0  0
 13 14  2  0  0  0  0
 13 48  1  0  0  0  0
 14 15  1  0  0  0  0
 14 49  1  0  0  0  0
 15 16  2  0  0  0  0
 15 50  1  0  0  0  0
 16 17  1  0  0  0  0
 16 51  1  0  0  0  0
 17 18  2  0  0  0  0
 17 52  1  0  0  0  0
 18 19  1  0  0  0  0
 18 53  1  0  0  0  0
 19 20  1  0  0  0  0
 19 21  2  0  0  0  0
 20 54  1  0  0  0  0
 20 55  1  0  0  0  0
 20 56  1  0  0  0  0
 21 22  1  0  0  0  0
 22 23  1  0  0  0  0
 22 28  2  0  0  0  0
 23 24  2  0  0  0  0
 23 57  1  0  0  0  0
 24 25  1  0  0  0  0
 24 58  1  0  0  0  0
 25 26  1  0  0  0  0
 25 27  2  0  0  0  0
 27 28  1  0  0  0  0
 27 59  1  0  0  0  0
M  END
$$$$
