
 OpenBabel04232216433D

 26 26  0  0  0  0  0  0  0  0999 V2000
   -1.5019    0.1796    0.4245 C   0  0  0  0  0  0  0  0  0  0  0  0
   -1.0046    1.1932   -0.5390 C   0  0  0  0  0  0  0  0  0  0  0  0
    0.2795    1.5826   -0.4710 C   0  0  0  0  0  0  0  0  0  0  0  0
    1.2376    1.0341    0.4679 C   0  0  0  0  0  0  0  0  0  0  0  0
    1.5534   -0.2692    0.5377 C   0  0  0  0  0  0  0  0  0  0  0  0
    0.9357   -1.2074   -0.4482 C   0  0  0  0  0  0  0  0  0  0  0  0
    1.8639   -1.7292   -1.5360 C   0  0  0  0  0  0  0  0  0  0  0  0
    2.5537   -3.0196   -1.1107 C   0  0  0  0  0  0  0  0  0  0  0  0
    3.4926   -3.5498   -2.1961 C   0  0  0  0  0  0  0  0  0  0  0  0
    4.1629   -4.8384   -1.7449 C   0  0  0  0  0  0  0  0  0  0  0  0
   -0.3163   -1.5536   -0.4917 N   0  0  0  0  0  0  0  0  0  0  0  0
   -1.1492   -1.0665    0.5270 N   0  0  0  0  0  0  0  0  0  0  0  0
   -2.2231    0.5733    1.1586 H   0  0  0  0  0  0  0  0  0  0  0  0
   -1.7166    1.6083   -1.2390 H   0  0  0  0  0  0  0  0  0  0  0  0
    0.6504    2.3401   -1.1572 H   0  0  0  0  0  0  0  0  0  0  0  0
    1.6961    1.7402    1.1607 H   0  0  0  0  0  0  0  0  0  0  0  0
    2.2568   -0.6773    1.2493 H   0  0  0  0  0  0  0  0  0  0  0  0
    2.6090   -0.9589   -1.7671 H   0  0  0  0  0  0  0  0  0  0  0  0
    1.2765   -1.8912   -2.4479 H   0  0  0  0  0  0  0  0  0  0  0  0
    1.7985   -3.7792   -0.8760 H   0  0  0  0  0  0  0  0  0  0  0  0
    3.1238   -2.8471   -0.1898 H   0  0  0  0  0  0  0  0  0  0  0  0
    4.2623   -2.8038   -2.4282 H   0  0  0  0  0  0  0  0  0  0  0  0
    2.9342   -3.7368   -3.1211 H   0  0  0  0  0  0  0  0  0  0  0  0
    4.7498   -4.6739   -0.8354 H   0  0  0  0  0  0  0  0  0  0  0  0
    4.8357   -5.2158   -2.5208 H   0  0  0  0  0  0  0  0  0  0  0  0
    3.4168   -5.6116   -1.5351 H   0  0  0  0  0  0  0  0  0  0  0  0
  1  2  1  0  0  0  0
  1 12  2  0  0  0  0
  1 13  1  0  0  0  0
  2  3  2  0  0  0  0
  2 14  1  0  0  0  0
  3  4  1  0  0  0  0
  3 15  1  0  0  0  0
  4  5  2  0  0  0  0
  4 16  1  0  0  0  0
  5  6  1  0  0  0  0
  5 17  1  0  0  0  0
  6  7  1  0  0  0  0
  6 11  2  0  0  0  0
  7  8  1  0  0  0  0
  7 18  1  0  0  0  0
  7 19  1  0  0  0  0
  8  9  1  0  0  0  0
  8 20  1  0  0  0  0
  8 21  1  0  0  0  0
  9 10  1  0  0  0  0
  9 22  1  0  0  0  0
  9 23  1  0  0  0  0
 10 24  1  0  0  0  0
 10 25  1  0  0  0  0
 10 26  1  0  0  0  0
 11 12  1  0  0  0  0
M  END
$$$$
