
 OpenBabel04232217013D

232232  0  0  1  0  0  0  0  0999 V2000
    3.0370    3.1730    1.5304 O   0  0  0  0  0  0  0  0  0  0  0  0
    2.4069    2.3187    0.6400 N   0  0  0  0  0  0  0  0  0  0  0  0
    1.1125    1.8975    0.7858 C   0  0  0  0  0  0  0  0  0  0  0  0
    0.9643    0.6457    0.3675 C   0  0  0  0  0  0  0  0  0  0  0  0
    2.3064    0.0431    0.0467 C   0  0  0  0  0  0  0  0  0  0  0  0
    3.2508    1.2805    0.0332 C   0  0  3  0  0  0  0  0  0  0  0  0
    3.5591    1.7297   -1.3998 C   0  0  0  0  0  0  0  0  0  0  0  0
    4.4827    2.9467   -1.4186 C   0  0  0  0  0  0  0  0  0  0  0  0
    4.7489    3.3819   -2.8485 C   0  0  0  0  0  0  0  0  0  0  0  0
    5.6736    4.5865   -2.8492 C   0  0  0  0  0  0  0  0  0  0  0  0
    5.9504    5.0264   -4.2738 C   0  0  0  0  0  0  0  0  0  0  0  0
    6.8764    6.2286   -4.2731 C   0  0  0  0  0  0  0  0  0  0  0  0
    7.1477    6.6666   -5.6996 C   0  0  0  0  0  0  0  0  0  0  0  0
    8.0728    7.8682   -5.7037 C   0  0  0  0  0  0  0  0  0  0  0  0
    8.3425    8.3039   -7.1313 C   0  0  0  0  0  0  0  0  0  0  0  0
    9.2673    9.5058   -7.1365 C   0  0  0  0  0  0  0  0  0  0  0  0
    9.5371    9.9415   -8.5639 C   0  0  0  0  0  0  0  0  0  0  0  0
   10.4619   11.1436   -8.5686 C   0  0  0  0  0  0  0  0  0  0  0  0
   10.7304   11.5809   -9.9958 C   0  0  0  0  0  0  0  0  0  0  0  0
   11.6553   12.7829  -10.0004 C   0  0  0  0  0  0  0  0  0  0  0  0
   11.9236   13.2200  -11.4277 C   0  0  0  0  0  0  0  0  0  0  0  0
   12.8484   14.4220  -11.4327 C   0  0  0  0  0  0  0  0  0  0  0  0
   13.1166   14.8590  -12.8601 C   0  0  0  0  0  0  0  0  0  0  0  0
   14.0415   16.0610  -12.8650 C   0  0  0  0  0  0  0  0  0  0  0  0
   14.3098   16.4980  -14.2923 C   0  0  0  0  0  0  0  0  0  0  0  0
   15.2346   17.7000  -14.2970 C   0  0  0  0  0  0  0  0  0  0  0  0
   15.5030   18.1372  -15.7243 C   0  0  0  0  0  0  0  0  0  0  0  0
   16.4279   19.3391  -15.7290 C   0  0  0  0  0  0  0  0  0  0  0  0
   16.6944   19.7777  -17.1562 C   0  0  0  0  0  0  0  0  0  0  0  0
   17.6197   20.9794  -17.1611 C   0  0  0  0  0  0  0  0  0  0  0  0
   17.8844   21.4193  -18.5882 C   0  0  0  0  0  0  0  0  0  0  0  0
   18.8096   22.6212  -18.5932 C   0  0  0  0  0  0  0  0  0  0  0  0
   19.0759   23.0596  -20.0205 C   0  0  0  0  0  0  0  0  0  0  0  0
   20.0013   24.2610  -20.0249 C   0  0  0  0  0  0  0  0  0  0  0  0
   20.2655   24.7008  -21.4520 C   0  0  0  0  0  0  0  0  0  0  0  0
   21.1930   25.9016  -21.4570 C   0  0  0  0  0  0  0  0  0  0  0  0
   21.4555   26.3426  -22.8836 C   0  0  0  0  0  0  0  0  0  0  0  0
   22.3834   27.5428  -22.8881 C   0  0  0  0  0  0  0  0  0  0  0  0
   22.6450   27.9839  -24.3164 C   0  0  0  0  0  0  0  0  0  0  0  0
   23.5734   29.1846  -24.3202 C   0  0  0  0  0  0  0  0  0  0  0  0
   23.8350   29.6256  -25.7488 C   0  0  0  0  0  0  0  0  0  0  0  0
   24.7632   30.8264  -25.7519 C   0  0  0  0  0  0  0  0  0  0  0  0
   25.0249   31.2668  -27.1806 C   0  0  0  0  0  0  0  0  0  0  0  0
   25.9514   32.4690  -27.1836 C   0  0  0  0  0  0  0  0  0  0  0  0
   26.2145   32.9086  -28.6123 C   0  0  0  0  0  0  0  0  0  0  0  0
   27.1401   34.1116  -28.6156 C   0  0  0  0  0  0  0  0  0  0  0  0
   27.4048   34.5503  -30.0445 C   0  0  0  0  0  0  0  0  0  0  0  0
   28.3316   35.7523  -30.0478 C   0  0  0  0  0  0  0  0  0  0  0  0
   28.5968   36.1907  -31.4759 C   0  0  0  0  0  0  0  0  0  0  0  0
   29.5232   37.3922  -31.4796 C   0  0  0  0  0  0  0  0  0  0  0  0
   29.7886   37.8309  -32.9078 C   0  0  0  0  0  0  0  0  0  0  0  0
   30.7125   39.0335  -32.9120 C   0  0  0  0  0  0  0  0  0  0  0  0
   30.9776   39.4717  -34.3394 C   0  0  0  0  0  0  0  0  0  0  0  0
   31.9003   40.6768  -34.3441 C   0  0  0  0  0  0  0  0  0  0  0  0
   32.1664   41.1149  -35.7712 C   0  0  0  0  0  0  0  0  0  0  0  0
   33.0871   42.3204  -35.7759 C   0  0  0  0  0  0  0  0  0  0  0  0
   33.3557   42.7579  -37.2024 C   0  0  0  0  0  0  0  0  0  0  0  0
   34.2755   43.9636  -37.2075 C   0  0  0  0  0  0  0  0  0  0  0  0
   34.5439   44.4008  -38.6348 C   0  0  0  0  0  0  0  0  0  0  0  0
   35.4670   45.6041  -38.6397 C   0  0  0  0  0  0  0  0  0  0  0  0
   35.7390   46.0383  -40.0672 C   0  0  0  0  0  0  0  0  0  0  0  0
   36.6590   47.2440  -40.0718 C   0  0  0  0  0  0  0  0  0  0  0  0
   36.9256   47.6818  -41.4994 C   0  0  0  0  0  0  0  0  0  0  0  0
   37.8472   48.8864  -41.5039 C   0  0  0  0  0  0  0  0  0  0  0  0
   38.1168   49.3228  -42.9311 C   0  0  0  0  0  0  0  0  0  0  0  0
   39.0384   50.5274  -42.9365 C   0  0  0  0  0  0  0  0  0  0  0  0
   39.3084   50.9633  -44.3640 C   0  0  0  0  0  0  0  0  0  0  0  0
   40.2286   52.1690  -44.3681 C   0  0  0  0  0  0  0  0  0  0  0  0
   40.4975   52.6070  -45.7952 C   0  0  0  0  0  0  0  0  0  0  0  0
   41.4193   53.8117  -45.7998 C   0  0  0  0  0  0  0  0  0  0  0  0
   41.6863   54.2504  -47.2274 C   0  0  0  0  0  0  0  0  0  0  0  0
   42.6099   55.4543  -47.2335 C   0  0  0  0  0  0  0  0  0  0  0  0
   42.8777   55.8941  -48.6612 C   0  0  0  0  0  0  0  0  0  0  0  0
   43.8006   57.1002  -48.6679 C   0  0  0  0  0  0  0  0  0  0  0  0
   44.0723   57.5420  -50.0956 C   0  0  0  0  0  0  0  0  0  0  0  0
   44.9967   58.7503  -50.1041 C   0  0  0  0  0  0  0  0  0  0  0  0
   45.2706   59.1947  -51.5331 C   0  0  0  0  0  0  0  0  0  0  0  0
   46.1974   60.4037  -51.5554 C   0  0  0  0  0  0  0  0  0  0  0  0
   46.4677   60.8434  -52.9819 C   0  0  0  0  0  0  0  0  0  0  0  0
    2.3172    3.7351    1.8673 H   0  0  0  0  0  0  0  0  0  0  0  0
    0.3534    2.5852    1.1301 H   0  0  0  0  0  0  0  0  0  0  0  0
    0.0253    0.1019    0.3092 H   0  0  0  0  0  0  0  0  0  0  0  0
    2.3000   -0.5072   -0.8976 H   0  0  0  0  0  0  0  0  0  0  0  0
    2.5925   -0.6487    0.8490 H   0  0  0  0  0  0  0  0  0  0  0  0
    4.1699    1.0815    0.5984 H   0  0  0  0  0  0  0  0  0  0  0  0
    2.6242    1.9868   -1.9173 H   0  0  0  0  0  0  0  0  0  0  0  0
    4.0191    0.9117   -1.9608 H   0  0  0  0  0  0  0  0  0  0  0  0
    5.4325    2.7068   -0.9266 H   0  0  0  0  0  0  0  0  0  0  0  0
    4.0336    3.7803   -0.8690 H   0  0  0  0  0  0  0  0  0  0  0  0
    3.8052    3.6332   -3.3490 H   0  0  0  0  0  0  0  0  0  0  0  0
    5.2072    2.5601   -3.4111 H   0  0  0  0  0  0  0  0  0  0  0  0
    6.6163    4.3349   -2.3477 H   0  0  0  0  0  0  0  0  0  0  0  0
    5.2169    5.4095   -2.2861 H   0  0  0  0  0  0  0  0  0  0  0  0
    5.0090    5.2807   -4.7757 H   0  0  0  0  0  0  0  0  0  0  0  0
    6.4078    4.2038   -4.8371 H   0  0  0  0  0  0  0  0  0  0  0  0
    7.8197    5.9754   -3.7732 H   0  0  0  0  0  0  0  0  0  0  0  0
    6.4212    7.0520   -3.7090 H   0  0  0  0  0  0  0  0  0  0  0  0
    6.2040    6.9198   -6.1983 H   0  0  0  0  0  0  0  0  0  0  0  0
    7.6019    5.8426   -6.2638 H   0  0  0  0  0  0  0  0  0  0  0  0
    9.0165    7.6158   -5.2047 H   0  0  0  0  0  0  0  0  0  0  0  0
    7.6180    8.6924   -5.1405 H   0  0  0  0  0  0  0  0  0  0  0  0
    7.3985    8.5560   -7.6302 H   0  0  0  0  0  0  0  0  0  0  0  0
    8.7971    7.4795   -7.6944 H   0  0  0  0  0  0  0  0  0  0  0  0
   10.2112    9.2536   -6.6376 H   0  0  0  0  0  0  0  0  0  0  0  0
    8.8126   10.3301   -6.5733 H   0  0  0  0  0  0  0  0  0  0  0  0
    8.5932   10.1937   -9.0628 H   0  0  0  0  0  0  0  0  0  0  0  0
    9.9918    9.1173   -9.1272 H   0  0  0  0  0  0  0  0  0  0  0  0
   11.4062   10.8909   -8.0708 H   0  0  0  0  0  0  0  0  0  0  0  0
   10.0077   11.9673   -8.0042 H   0  0  0  0  0  0  0  0  0  0  0  0
    9.7861   11.8336  -10.4936 H   0  0  0  0  0  0  0  0  0  0  0  0
   11.1847   10.7572  -10.5603 H   0  0  0  0  0  0  0  0  0  0  0  0
   12.5997   12.5303   -9.5026 H   0  0  0  0  0  0  0  0  0  0  0  0
   11.2012   13.6066   -9.4358 H   0  0  0  0  0  0  0  0  0  0  0  0
   10.9791   13.4726  -11.9254 H   0  0  0  0  0  0  0  0  0  0  0  0
   12.3777   12.3962  -11.9921 H   0  0  0  0  0  0  0  0  0  0  0  0
   13.7929   14.1694  -10.9351 H   0  0  0  0  0  0  0  0  0  0  0  0
   12.3943   15.2458  -10.8683 H   0  0  0  0  0  0  0  0  0  0  0  0
   12.1722   15.1116  -13.3578 H   0  0  0  0  0  0  0  0  0  0  0  0
   13.5708   14.0352  -13.4245 H   0  0  0  0  0  0  0  0  0  0  0  0
   14.9859   15.8084  -12.3672 H   0  0  0  0  0  0  0  0  0  0  0  0
   13.5873   16.8847  -12.3005 H   0  0  0  0  0  0  0  0  0  0  0  0
   13.3654   16.7506  -14.7900 H   0  0  0  0  0  0  0  0  0  0  0  0
   14.7640   15.6743  -14.8567 H   0  0  0  0  0  0  0  0  0  0  0  0
   16.1790   17.4475  -13.7993 H   0  0  0  0  0  0  0  0  0  0  0  0
   14.7804   18.5238  -13.7326 H   0  0  0  0  0  0  0  0  0  0  0  0
   14.5585   18.3898  -16.2220 H   0  0  0  0  0  0  0  0  0  0  0  0
   15.9571   17.3134  -16.2888 H   0  0  0  0  0  0  0  0  0  0  0  0
   17.3728   19.0860  -15.2327 H   0  0  0  0  0  0  0  0  0  0  0  0
   15.9744   20.1624  -15.1633 H   0  0  0  0  0  0  0  0  0  0  0  0
   15.7493   20.0311  -17.6523 H   0  0  0  0  0  0  0  0  0  0  0  0
   17.1475   18.9544  -17.7221 H   0  0  0  0  0  0  0  0  0  0  0  0
   18.5653   20.7252  -16.6665 H   0  0  0  0  0  0  0  0  0  0  0  0
   17.1676   21.8022  -16.5936 H   0  0  0  0  0  0  0  0  0  0  0  0
   16.9388   21.6730  -19.0831 H   0  0  0  0  0  0  0  0  0  0  0  0
   18.3371   20.5965  -19.1552 H   0  0  0  0  0  0  0  0  0  0  0  0
   19.7546   22.3677  -18.0971 H   0  0  0  0  0  0  0  0  0  0  0  0
   18.3565   23.4444  -18.0272 H   0  0  0  0  0  0  0  0  0  0  0  0
   18.1308   23.3134  -20.5162 H   0  0  0  0  0  0  0  0  0  0  0  0
   19.5288   22.2364  -20.5867 H   0  0  0  0  0  0  0  0  0  0  0  0
   20.9472   24.0066  -19.5311 H   0  0  0  0  0  0  0  0  0  0  0  0
   19.5498   25.0838  -19.4576 H   0  0  0  0  0  0  0  0  0  0  0  0
   19.3200   24.9575  -21.9456 H   0  0  0  0  0  0  0  0  0  0  0  0
   20.7163   23.8789  -22.0209 H   0  0  0  0  0  0  0  0  0  0  0  0
   22.1393   25.6447  -20.9642 H   0  0  0  0  0  0  0  0  0  0  0  0
   20.7432   26.7245  -20.8867 H   0  0  0  0  0  0  0  0  0  0  0  0
   20.5088   26.5992  -23.3760 H   0  0  0  0  0  0  0  0  0  0  0  0
   21.9040   25.5195  -23.4529 H   0  0  0  0  0  0  0  0  0  0  0  0
   23.3298   27.2863  -22.3959 H   0  0  0  0  0  0  0  0  0  0  0  0
   21.9340   28.3642  -22.3203 H   0  0  0  0  0  0  0  0  0  0  0  0
   21.6987   28.2409  -24.8087 H   0  0  0  0  0  0  0  0  0  0  0  0
   23.0946   27.1628  -24.8855 H   0  0  0  0  0  0  0  0  0  0  0  0
   24.5198   28.9279  -23.8281 H   0  0  0  0  0  0  0  0  0  0  0  0
   23.1242   30.0066  -23.7516 H   0  0  0  0  0  0  0  0  0  0  0  0
   22.8885   29.8823  -26.2408 H   0  0  0  0  0  0  0  0  0  0  0  0
   24.2847   28.8047  -26.3170 H   0  0  0  0  0  0  0  0  0  0  0  0
   25.7097   30.5696  -25.2598 H   0  0  0  0  0  0  0  0  0  0  0  0
   24.3123   31.6474  -25.1832 H   0  0  0  0  0  0  0  0  0  0  0  0
   24.0783   31.5225  -27.6732 H   0  0  0  0  0  0  0  0  0  0  0  0
   25.4752   30.4443  -27.7483 H   0  0  0  0  0  0  0  0  0  0  0  0
   26.8977   32.2141  -26.6900 H   0  0  0  0  0  0  0  0  0  0  0  0
   25.4993   33.2901  -26.6156 H   0  0  0  0  0  0  0  0  0  0  0  0
   25.2686   33.1624  -29.1068 H   0  0  0  0  0  0  0  0  0  0  0  0
   26.6667   32.0862  -29.1789 H   0  0  0  0  0  0  0  0  0  0  0  0
   28.0856   33.8584  -28.1200 H   0  0  0  0  0  0  0  0  0  0  0  0
   26.6873   34.9335  -28.0496 H   0  0  0  0  0  0  0  0  0  0  0  0
   26.4592   34.8046  -30.5395 H   0  0  0  0  0  0  0  0  0  0  0  0
   27.8577   33.7291  -30.6106 H   0  0  0  0  0  0  0  0  0  0  0  0
   29.2770   35.4978  -29.5524 H   0  0  0  0  0  0  0  0  0  0  0  0
   27.8783   36.5730  -29.4836 H   0  0  0  0  0  0  0  0  0  0  0  0
   27.6513   36.4453  -31.9714 H   0  0  0  0  0  0  0  0  0  0  0  0
   29.0487   35.3683  -32.0427 H   0  0  0  0  0  0  0  0  0  0  0  0
   30.4685   37.1383  -30.9843 H   0  0  0  0  0  0  0  0  0  0  0  0
   29.0716   38.2152  -30.9142 H   0  0  0  0  0  0  0  0  0  0  0  0
   28.8430   38.0838  -33.4029 H   0  0  0  0  0  0  0  0  0  0  0  0
   30.2416   37.0078  -33.4740 H   0  0  0  0  0  0  0  0  0  0  0  0
   31.6578   38.7804  -32.4166 H   0  0  0  0  0  0  0  0  0  0  0  0
   30.2589   39.8559  -32.3455 H   0  0  0  0  0  0  0  0  0  0  0  0
   30.0322   39.7238  -34.8354 H   0  0  0  0  0  0  0  0  0  0  0  0
   31.4327   38.6503  -34.9049 H   0  0  0  0  0  0  0  0  0  0  0  0
   32.8453   40.4248  -33.8480 H   0  0  0  0  0  0  0  0  0  0  0  0
   31.4438   41.4993  -33.7775 H   0  0  0  0  0  0  0  0  0  0  0  0
   31.2210   41.3650  -36.2683 H   0  0  0  0  0  0  0  0  0  0  0  0
   32.6231   40.2932  -36.3364 H   0  0  0  0  0  0  0  0  0  0  0  0
   34.0324   42.0712  -35.2783 H   0  0  0  0  0  0  0  0  0  0  0  0
   32.6300   43.1425  -35.2115 H   0  0  0  0  0  0  0  0  0  0  0  0
   32.4087   43.0095  -37.7004 H   0  0  0  0  0  0  0  0  0  0  0  0
   33.8101   41.9369  -37.7681 H   0  0  0  0  0  0  0  0  0  0  0  0
   35.2203   43.7135  -36.7091 H   0  0  0  0  0  0  0  0  0  0  0  0
   33.8189   44.7863  -36.6437 H   0  0  0  0  0  0  0  0  0  0  0  0
   33.5993   44.6519  -39.1329 H   0  0  0  0  0  0  0  0  0  0  0  0
   34.9994   43.5776  -39.1988 H   0  0  0  0  0  0  0  0  0  0  0  0
   36.4104   45.3541  -38.1387 H   0  0  0  0  0  0  0  0  0  0  0  0
   35.0098   46.4284  -38.0783 H   0  0  0  0  0  0  0  0  0  0  0  0
   34.7955   46.2857  -40.5689 H   0  0  0  0  0  0  0  0  0  0  0  0
   36.1984   45.2147  -40.6277 H   0  0  0  0  0  0  0  0  0  0  0  0
   37.6032   46.9980  -39.5709 H   0  0  0  0  0  0  0  0  0  0  0  0
   36.1992   48.0666  -39.5097 H   0  0  0  0  0  0  0  0  0  0  0  0
   35.9803   47.9325  -41.9964 H   0  0  0  0  0  0  0  0  0  0  0  0
   37.3809   46.8597  -42.0653 H   0  0  0  0  0  0  0  0  0  0  0  0
   38.7914   48.6365  -41.0046 H   0  0  0  0  0  0  0  0  0  0  0  0
   37.3899   49.7096  -40.9409 H   0  0  0  0  0  0  0  0  0  0  0  0
   37.1724   49.5720  -43.4306 H   0  0  0  0  0  0  0  0  0  0  0  0
   38.5742   48.4994  -43.4934 H   0  0  0  0  0  0  0  0  0  0  0  0
   39.9827   50.2784  -42.4368 H   0  0  0  0  0  0  0  0  0  0  0  0
   38.5810   51.3509  -42.3744 H   0  0  0  0  0  0  0  0  0  0  0  0
   38.3641   51.2115  -44.8644 H   0  0  0  0  0  0  0  0  0  0  0  0
   39.7671   50.1406  -44.9262 H   0  0  0  0  0  0  0  0  0  0  0  0
   41.1731   51.9203  -43.8687 H   0  0  0  0  0  0  0  0  0  0  0  0
   39.7704   52.9912  -43.8046 H   0  0  0  0  0  0  0  0  0  0  0  0
   39.5529   52.8569  -46.2938 H   0  0  0  0  0  0  0  0  0  0  0  0
   40.9545   51.7843  -46.3590 H   0  0  0  0  0  0  0  0  0  0  0  0
   42.3643   53.5612  -45.3023 H   0  0  0  0  0  0  0  0  0  0  0  0
   40.9630   54.6339  -45.2348 H   0  0  0  0  0  0  0  0  0  0  0  0
   40.7409   54.5015  -47.7239 H   0  0  0  0  0  0  0  0  0  0  0  0
   42.1408   53.4272  -47.7923 H   0  0  0  0  0  0  0  0  0  0  0  0
   43.5546   55.2021  -46.7360 H   0  0  0  0  0  0  0  0  0  0  0  0
   42.1546   56.2765  -46.6676 H   0  0  0  0  0  0  0  0  0  0  0  0
   41.9321   56.1437  -49.1580 H   0  0  0  0  0  0  0  0  0  0  0  0
   43.3333   55.0710  -49.2254 H   0  0  0  0  0  0  0  0  0  0  0  0
   44.7442   56.8490  -48.1680 H   0  0  0  0  0  0  0  0  0  0  0  0
   43.3427   57.9215  -48.1029 H   0  0  0  0  0  0  0  0  0  0  0  0
   43.1270   57.7905  -50.5936 H   0  0  0  0  0  0  0  0  0  0  0  0
   44.5281   56.7182  -50.6586 H   0  0  0  0  0  0  0  0  0  0  0  0
   45.9394   58.4977  -49.6033 H   0  0  0  0  0  0  0  0  0  0  0  0
   44.5380   59.5703  -49.5383 H   0  0  0  0  0  0  0  0  0  0  0  0
   44.3240   59.4423  -52.0291 H   0  0  0  0  0  0  0  0  0  0  0  0
   45.7234   58.3685  -52.0950 H   0  0  0  0  0  0  0  0  0  0  0  0
   47.1446   60.1566  -51.0620 H   0  0  0  0  0  0  0  0  0  0  0  0
   45.7449   61.2308  -50.9961 H   0  0  0  0  0  0  0  0  0  0  0  0
   46.9424   60.0390  -53.5529 H   0  0  0  0  0  0  0  0  0  0  0  0
   47.1331   61.7110  -52.9917 H   0  0  0  0  0  0  0  0  0  0  0  0
   45.5360   61.1184  -53.4867 H   0  0  0  0  0  0  0  0  0  0  0  0
  1  2  1  0  0  0  0
  1 80  1  0  0  0  0
  2  3  1  0  0  0  0
  2  6  1  0  0  0  0
  3  4  2  0  0  0  0
  3 81  1  0  0  0  0
  4  5  1  0  0  0  0
  4 82  1  0  0  0  0
  5  6  1  0  0  0  0
  5 83  1  0  0  0  0
  5 84  1  0  0  0  0
  6  7  1  0  0  0  0
  6 85  1  0  0  0  0
  7  8  1  0  0  0  0
  7 86  1  0  0  0  0
  7 87  1  0  0  0  0
  8  9  1  0  0  0  0
  8 88  1  0  0  0  0
  8 89  1  0  0  0  0
  9 10  1  0  0  0  0
  9 90  1  0  0  0  0
  9 91  1  0  0  0  0
 10 11  1  0  0  0  0
 10 92  1  0  0  0  0
 10 93  1  0  0  0  0
 11 12  1  0  0  0  0
 11 94  1  0  0  0  0
 11 95  1  0  0  0  0
 12 13  1  0  0  0  0
 12 96  1  0  0  0  0
 12 97  1  0  0  0  0
 13 14  1  0  0  0  0
 13 98  1  0  0  0  0
 13 99  1  0  0  0  0
 14 15  1  0  0  0  0
 14100  1  0  0  0  0
 14101  1  0  0  0  0
 15 16  1  0  0  0  0
 15102  1  0  0  0  0
 15103  1  0  0  0  0
 16 17  1  0  0  0  0
 16104  1  0  0  0  0
 16105  1  0  0  0  0
 17 18  1  0  0  0  0
 17106  1  0  0  0  0
 17107  1  0  0  0  0
 18 19  1  0  0  0  0
 18108  1  0  0  0  0
 18109  1  0  0  0  0
 19 20  1  0  0  0  0
 19110  1  0  0  0  0
 19111  1  0  0  0  0
 20 21  1  0  0  0  0
 20112  1  0  0  0  0
 20113  1  0  0  0  0
 21 22  1  0  0  0  0
 21114  1  0  0  0  0
 21115  1  0  0  0  0
 22 23  1  0  0  0  0
 22116  1  0  0  0  0
 22117  1  0  0  0  0
 23 24  1  0  0  0  0
 23118  1  0  0  0  0
 23119  1  0  0  0  0
 24 25  1  0  0  0  0
 24120  1  0  0  0  0
 24121  1  0  0  0  0
 25 26  1  0  0  0  0
 25122  1  0  0  0  0
 25123  1  0  0  0  0
 26 27  1  0  0  0  0
 26124  1  0  0  0  0
 26125  1  0  0  0  0
 27 28  1  0  0  0  0
 27126  1  0  0  0  0
 27127  1  0  0  0  0
 28 29  1  0  0  0  0
 28128  1  0  0  0  0
 28129  1  0  0  0  0
 29 30  1  0  0  0  0
 29130  1  0  0  0  0
 29131  1  0  0  0  0
 30 31  1  0  0  0  0
 30132  1  0  0  0  0
 30133  1  0  0  0  0
 31 32  1  0  0  0  0
 31134  1  0  0  0  0
 31135  1  0  0  0  0
 32 33  1  0  0  0  0
 32136  1  0  0  0  0
 32137  1  0  0  0  0
 33 34  1  0  0  0  0
 33138  1  0  0  0  0
 33139  1  0  0  0  0
 34 35  1  0  0  0  0
 34140  1  0  0  0  0
 34141  1  0  0  0  0
 35 36  1  0  0  0  0
 35142  1  0  0  0  0
 35143  1  0  0  0  0
 36 37  1  0  0  0  0
 36144  1  0  0  0  0
 36145  1  0  0  0  0
 37 38  1  0  0  0  0
 37146  1  0  0  0  0
 37147  1  0  0  0  0
 38 39  1  0  0  0  0
 38148  1  0  0  0  0
 38149  1  0  0  0  0
 39 40  1  0  0  0  0
 39150  1  0  0  0  0
 39151  1  0  0  0  0
 40 41  1  0  0  0  0
 40152  1  0  0  0  0
 40153  1  0  0  0  0
 41 42  1  0  0  0  0
 41154  1  0  0  0  0
 41155  1  0  0  0  0
 42 43  1  0  0  0  0
 42156  1  0  0  0  0
 42157  1  0  0  0  0
 43 44  1  0  0  0  0
 43158  1  0  0  0  0
 43159  1  0  0  0  0
 44 45  1  0  0  0  0
 44160  1  0  0  0  0
 44161  1  0  0  0  0
 45 46  1  0  0  0  0
 45162  1  0  0  0  0
 45163  1  0  0  0  0
 46 47  1  0  0  0  0
 46164  1  0  0  0  0
 46165  1  0  0  0  0
 47 48  1  0  0  0  0
 47166  1  0  0  0  0
 47167  1  0  0  0  0
 48 49  1  0  0  0  0
 48168  1  0  0  0  0
 48169  1  0  0  0  0
 49 50  1  0  0  0  0
 49170  1  0  0  0  0
 49171  1  0  0  0  0
 50 51  1  0  0  0  0
 50172  1  0  0  0  0
 50173  1  0  0  0  0
 51 52  1  0  0  0  0
 51174  1  0  0  0  0
 51175  1  0  0  0  0
 52 53  1  0  0  0  0
 52176  1  0  0  0  0
 52177  1  0  0  0  0
 53 54  1  0  0  0  0
 53178  1  0  0  0  0
 53179  1  0  0  0  0
 54 55  1  0  0  0  0
 54180  1  0  0  0  0
 54181  1  0  0  0  0
 55 56  1  0  0  0  0
 55182  1  0  0  0  0
 55183  1  0  0  0  0
 56 57  1  0  0  0  0
 56184  1  0  0  0  0
 56185  1  0  0  0  0
 57 58  1  0  0  0  0
 57186  1  0  0  0  0
 57187  1  0  0  0  0
 58 59  1  0  0  0  0
 58188  1  0  0  0  0
 58189  1  0  0  0  0
 59 60  1  0  0  0  0
 59190  1  0  0  0  0
 59191  1  0  0  0  0
 60 61  1  0  0  0  0
 60192  1  0  0  0  0
 60193  1  0  0  0  0
 61 62  1  0  0  0  0
 61194  1  0  0  0  0
 61195  1  0  0  0  0
 62 63  1  0  0  0  0
 62196  1  0  0  0  0
 62197  1  0  0  0  0
 63 64  1  0  0  0  0
 63198  1  0  0  0  0
 63199  1  0  0  0  0
 64 65  1  0  0  0  0
 64200  1  0  0  0  0
 64201  1  0  0  0  0
 65 66  1  0  0  0  0
 65202  1  0  0  0  0
 65203  1  0  0  0  0
 66 67  1  0  0  0  0
 66204  1  0  0  0  0
 66205  1  0  0  0  0
 67 68  1  0  0  0  0
 67206  1  0  0  0  0
 67207  1  0  0  0  0
 68 69  1  0  0  0  0
 68208  1  0  0  0  0
 68209  1  0  0  0  0
 69 70  1  0  0  0  0
 69210  1  0  0  0  0
 69211  1  0  0  0  0
 70 71  1  0  0  0  0
 70212  1  0  0  0  0
 70213  1  0  0  0  0
 71 72  1  0  0  0  0
 71214  1  0  0  0  0
 71215  1  0  0  0  0
 72 73  1  0  0  0  0
 72216  1  0  0  0  0
 72217  1  0  0  0  0
 73 74  1  0  0  0  0
 73218  1  0  0  0  0
 73219  1  0  0  0  0
 74 75  1  0  0  0  0
 74220  1  0  0  0  0
 74221  1  0  0  0  0
 75 76  1  0  0  0  0
 75222  1  0  0  0  0
 75223  1  0  0  0  0
 76 77  1  0  0  0  0
 76224  1  0  0  0  0
 76225  1  0  0  0  0
 77 78  1  0  0  0  0
 77226  1  0  0  0  0
 77227  1  0  0  0  0
 78 79  1  0  0  0  0
 78228  1  0  0  0  0
 78229  1  0  0  0  0
 79230  1  0  0  0  0
 79231  1  0  0  0  0
 79232  1  0  0  0  0
M  END
$$$$
