
 OpenBabel04232216443D

 48 49  0  0  0  0  0  0  0  0999 V2000
    6.7601    1.0088    1.8536 C   0  0  0  0  0  0  0  0  0  0  0  0
    6.9999   -0.3788    2.4419 C   0  0  0  0  0  0  0  0  0  0  0  0
    5.5801   -1.1477    2.1767 C   0  0  0  0  0  0  0  0  0  0  0  0
    4.3419   -0.6711    2.4660 C   0  0  0  0  0  0  0  0  0  0  0  0
    5.6045   -2.0380    1.1503 N   0  0  0  0  0  0  0  0  0  0  0  0
    5.3097   -3.2691    1.4595 C   0  0  0  0  0  0  0  0  0  0  0  0
    4.5493   -3.7517    2.7159 C   0  0  0  0  0  0  0  0  0  0  0  0
    4.6112   -5.2389    3.0589 C   0  0  0  0  0  0  0  0  0  0  0  0
    3.7401   -6.0935    2.1681 C   0  0  0  0  0  0  0  0  0  0  0  0
    6.2530   -4.1341    0.7720 C   0  0  0  0  0  0  0  0  0  0  0  0
    7.2271   -4.1472    1.6803 C   0  0  0  0  0  0  0  0  0  0  0  0
    8.5963   -4.3460    1.4475 C   0  0  0  0  0  0  0  0  0  0  0  0
    9.3055   -4.8647    2.4682 C   0  0  0  0  0  0  0  0  0  0  0  0
    8.6065   -5.5141    3.6959 C   0  0  0  0  0  0  0  0  0  0  0  0
   10.5914   -4.1991    2.6930 C   0  0  0  0  0  0  0  0  0  0  0  0
   11.3872   -3.6918    1.4846 C   0  0  0  0  0  0  0  0  0  0  0  0
   10.3518   -3.5280    3.8371 C   0  0  0  0  0  0  0  0  0  0  0  0
   10.2241   -2.0621    4.0454 C   0  0  0  0  0  0  0  0  0  0  0  0
   11.5455   -1.8983    4.6266 C   0  0  0  0  0  0  0  0  0  0  0  0
   12.4362   -1.1367    3.9376 C   0  0  0  0  0  0  0  0  0  0  0  0
   11.9601   -0.3608    2.9704 N   0  0  0  0  0  0  0  0  0  0  0  0
   10.5234   -0.3055    2.6414 N   0  0  0  0  0  0  0  0  0  0  0  0
    9.5823   -1.1261    3.1156 C   0  0  0  0  0  0  0  0  0  0  0  0
    8.2490   -0.6565    2.7411 N   0  0  0  0  0  0  0  0  0  0  0  0
    5.6954    1.2816    1.8369 H   0  0  0  0  0  0  0  0  0  0  0  0
    7.0650    0.9994    0.8001 H   0  0  0  0  0  0  0  0  0  0  0  0
    7.2764    1.7822    2.4108 H   0  0  0  0  0  0  0  0  0  0  0  0
    4.0890    0.1896    3.0675 H   0  0  0  0  0  0  0  0  0  0  0  0
    3.4753   -1.1296    1.9673 H   0  0  0  0  0  0  0  0  0  0  0  0
    3.5067   -3.4291    2.6395 H   0  0  0  0  0  0  0  0  0  0  0  0
    4.9860   -3.2261    3.5769 H   0  0  0  0  0  0  0  0  0  0  0  0
    4.3048   -5.3675    4.1034 H   0  0  0  0  0  0  0  0  0  0  0  0
    5.6239   -5.6321    3.0023 H   0  0  0  0  0  0  0  0  0  0  0  0
    2.7041   -5.7493    2.1957 H   0  0  0  0  0  0  0  0  0  0  0  0
    3.7733   -7.1307    2.5153 H   0  0  0  0  0  0  0  0  0  0  0  0
    4.0947   -6.0728    1.1339 H   0  0  0  0  0  0  0  0  0  0  0  0
    6.4713   -4.1447   -0.2847 H   0  0  0  0  0  0  0  0  0  0  0  0
    7.0695   -3.7456    2.6947 H   0  0  0  0  0  0  0  0  0  0  0  0
    8.9879   -3.6266    0.7274 H   0  0  0  0  0  0  0  0  0  0  0  0
    7.5458   -5.6988    3.5524 H   0  0  0  0  0  0  0  0  0  0  0  0
    8.5923   -4.8664    4.5875 H   0  0  0  0  0  0  0  0  0  0  0  0
    9.0770   -6.4561    3.9648 H   0  0  0  0  0  0  0  0  0  0  0  0
   10.8998   -3.7895    0.5096 H   0  0  0  0  0  0  0  0  0  0  0  0
   12.3198   -4.2605    1.3799 H   0  0  0  0  0  0  0  0  0  0  0  0
   11.6677   -2.6423    1.5804 H   0  0  0  0  0  0  0  0  0  0  0  0
   10.3801   -4.1387    4.7484 H   0  0  0  0  0  0  0  0  0  0  0  0
   11.9686   -2.6521    5.3071 H   0  0  0  0  0  0  0  0  0  0  0  0
   13.5093   -1.2810    4.0415 H   0  0  0  0  0  0  0  0  0  0  0  0
  1  2  1  0  0  0  0
  1 25  1  0  0  0  0
  1 26  1  0  0  0  0
  1 27  1  0  0  0  0
  2  3  1  0  0  0  0
  2 24  2  3  0  0  0
  3  4  2  0  0  0  0
  3  5  1  0  0  0  0
  4 28  1  0  0  0  0
  4 29  1  0  0  0  0
  5  6  2  3  0  0  0
  6  7  1  0  0  0  0
  6 10  1  0  0  0  0
  7  8  1  0  0  0  0
  7 30  1  0  0  0  0
  7 31  1  0  0  0  0
  8  9  1  0  0  0  0
  8 32  1  0  0  0  0
  8 33  1  0  0  0  0
  9 34  1  0  0  0  0
  9 35  1  0  0  0  0
  9 36  1  0  0  0  0
 10 11  2  3  0  0  0
 10 37  1  0  0  0  0
 11 12  1  0  0  0  0
 11 38  1  0  0  0  0
 12 13  2  3  0  0  0
 12 39  1  0  0  0  0
 13 14  1  0  0  0  0
 13 15  1  0  0  0  0
 14 40  1  0  0  0  0
 14 41  1  0  0  0  0
 14 42  1  0  0  0  0
 15 16  1  0  0  0  0
 15 17  2  3  0  0  0
 16 43  1  0  0  0  0
 16 44  1  0  0  0  0
 16 45  1  0  0  0  0
 17 18  1  0  0  0  0
 17 46  1  0  0  0  0
 18 19  1  0  0  0  0
 18 23  2  0  0  0  0
 19 20  2  0  0  0  0
 19 47  1  0  0  0  0
 20 21  1  0  0  0  0
 20 48  1  0  0  0  0
 21 22  2  0  0  0  0
 22 23  1  0  0  0  0
 23 24  1  0  0  0  0
M  END
$$$$
