
 OpenBabel04232216593D

 46 48  0  0  1  0  0  0  0  0999 V2000
    4.3568   -0.9999    0.1047 O   0  0  0  0  0  0  0  0  0  0  0  0
    4.7454   -0.8057   -1.1062 C   0  0  0  0  0  0  0  0  0  0  0  0
    3.6539    0.0990   -1.5730 C   0  0  0  0  0  0  0  0  0  0  0  0
    4.0339    1.0306   -2.3826 C   0  0  0  0  0  0  0  0  0  0  0  0
    4.1989    0.5823   -3.7898 C   0  0  3  0  0  0  0  0  0  0  0  0
    2.7059    0.5314   -3.8625 C   0  0  0  0  0  0  0  0  0  0  0  0
    2.0477    0.1252   -5.0902 C   0  0  0  0  0  0  0  0  0  0  0  0
    2.6124   -1.2717   -5.2497 C   0  0  0  0  0  0  0  0  0  0  0  0
    1.9836   -1.7638   -6.4948 C   0  0  0  0  0  0  0  0  0  0  0  0
    2.4648   -3.1558   -6.7746 C   0  0  0  0  0  0  0  0  0  0  0  0
    1.8043   -3.6193   -8.0452 C   0  0  0  0  0  0  0  0  0  0  0  0
    5.2291    1.2253   -2.8810 C   0  0  0  0  0  0  0  0  0  0  0  0
    6.4143    1.6147   -2.4666 N   0  0  0  0  0  0  0  0  0  0  0  0
    7.3676    1.4579   -3.3995 C   0  0  0  0  0  0  0  0  0  0  0  0
    6.8081    1.1595   -4.9501 C   0  0  0  0  0  0  0  0  0  0  0  0
    8.7079    1.1999   -3.0851 C   0  0  0  0  0  0  0  0  0  0  0  0
    9.5064    0.5350   -1.9300 C   0  0  0  0  0  0  0  0  0  0  0  0
    9.1814    0.3752   -4.0928 C   0  0  0  0  0  0  0  0  0  0  0  0
   10.3706    0.1228   -4.7868 C   0  0  0  0  0  0  0  0  0  0  0  0
    9.3940   -0.4135   -5.6094 C   0  0  0  0  0  0  0  0  0  0  0  0
    8.4928   -0.7703   -4.1638 C   0  0  0  0  0  0  0  0  0  0  0  0
    6.8455   -1.1119   -3.3599 N   0  0  0  0  0  0  0  0  0  0  0  0
    6.2795   -0.9379   -1.8810 N   0  0  0  0  0  0  0  0  0  0  0  0
    2.5414   -0.0309   -1.4815 H   0  0  0  0  0  0  0  0  0  0  0  0
    4.2545    0.9796   -4.7835 H   0  0  0  0  0  0  0  0  0  0  0  0
    2.2926    1.5680   -3.7536 H   0  0  0  0  0  0  0  0  0  0  0  0
    2.3490   -0.1713   -3.0909 H   0  0  0  0  0  0  0  0  0  0  0  0
    2.3505    0.8211   -5.8716 H   0  0  0  0  0  0  0  0  0  0  0  0
    0.9667    0.1330   -4.9167 H   0  0  0  0  0  0  0  0  0  0  0  0
    2.3750   -1.9180   -4.3849 H   0  0  0  0  0  0  0  0  0  0  0  0
    3.7133   -1.2585   -5.3096 H   0  0  0  0  0  0  0  0  0  0  0  0
    2.2490   -1.0737   -7.3035 H   0  0  0  0  0  0  0  0  0  0  0  0
    0.8957   -1.7317   -6.3636 H   0  0  0  0  0  0  0  0  0  0  0  0
    2.2072   -3.8149   -5.9376 H   0  0  0  0  0  0  0  0  0  0  0  0
    3.5559   -3.1588   -6.8779 H   0  0  0  0  0  0  0  0  0  0  0  0
    0.7152   -3.6096   -7.9307 H   0  0  0  0  0  0  0  0  0  0  0  0
    2.1311   -4.6302   -8.2822 H   0  0  0  0  0  0  0  0  0  0  0  0
    2.0665   -2.9519   -8.8729 H   0  0  0  0  0  0  0  0  0  0  0  0
    5.7693    1.0893   -5.1426 H   0  0  0  0  0  0  0  0  0  0  0  0
    6.9303    0.1529   -5.4125 H   0  0  0  0  0  0  0  0  0  0  0  0
    6.9494    2.0464   -5.5315 H   0  0  0  0  0  0  0  0  0  0  0  0
    8.8862    0.1437   -1.1280 H   0  0  0  0  0  0  0  0  0  0  0  0
   10.3454    1.1926   -1.7208 H   0  0  0  0  0  0  0  0  0  0  0  0
   10.0582   -0.4140   -2.2499 H   0  0  0  0  0  0  0  0  0  0  0  0
   11.1097    0.5287   -4.1222 H   0  0  0  0  0  0  0  0  0  0  0  0
   10.1566    0.3403   -6.3741 H   0  0  0  0  0  0  0  0  0  0  0  0
  1  2  2  0  0  0  0
  2  3  1  0  0  0  0
  2 23  1  0  0  0  0
  3  4  2  0  0  0  0
  3 24  1  0  0  0  0
  4  5  1  0  0  0  0
  4 12  1  0  0  0  0
  5  6  1  0  0  0  0
  5 12  1  0  0  0  0
  5 25  1  0  0  0  0
  6  7  1  0  0  0  0
  6 26  1  0  0  0  0
  6 27  1  0  0  0  0
  7  8  1  0  0  0  0
  7 28  1  0  0  0  0
  7 29  1  0  0  0  0
  8  9  1  0  0  0  0
  8 30  1  0  0  0  0
  8 31  1  0  0  0  0
  9 10  1  0  0  0  0
  9 32  1  0  0  0  0
  9 33  1  0  0  0  0
 10 11  1  0  0  0  0
 10 34  1  0  0  0  0
 10 35  1  0  0  0  0
 11 36  1  0  0  0  0
 11 37  1  0  0  0  0
 11 38  1  0  0  0  0
 12 13  2  0  0  0  0
 13 14  1  0  0  0  0
 14 15  1  0  0  0  0
 14 16  2  0  0  0  0
 15 39  1  0  0  0  0
 15 40  1  0  0  0  0
 15 41  1  0  0  0  0
 16 17  1  0  0  0  0
 16 18  1  0  0  0  0
 17 42  1  0  0  0  0
 17 43  1  0  0  0  0
 17 44  1  0  0  0  0
 18 19  1  0  0  0  0
 18 21  2  0  0  0  0
 19 20  2  0  0  0  0
 19 45  1  0  0  0  0
 20 21  1  0  0  0  0
 20 46  1  0  0  0  0
 21 22  1  0  0  0  0
 22 23  2  0  0  0  0
M  END
$$$$
