
 OpenBabel04232216523D

 49 50  0  0  1  0  0  0  0  0999 V2000
   10.4624   -3.4972   -3.1993 C   0  0  0  0  0  0  0  0  0  0  0  0
   10.7454   -3.3146   -1.7212 C   0  0  0  0  0  0  0  0  0  0  0  0
    9.4493   -3.0974   -0.9434 C   0  0  0  0  0  0  0  0  0  0  0  0
    9.6109   -2.6250    0.5116 C   0  0  0  0  0  0  0  0  0  0  0  0
   10.5538   -1.4269    0.8958 C   0  0  3  0  0  0  0  0  0  0  0  0
   10.7017   -1.3595    2.4868 C   0  0  3  0  0  0  0  0  0  0  0  0
   11.7249   -2.3821    2.9961 C   0  0  0  0  0  0  0  0  0  0  0  0
    9.3759   -1.4930    3.3016 C   0  0  0  0  0  0  0  0  0  0  0  0
    8.5544   -0.2017    3.2833 C   0  0  0  0  0  0  0  0  0  0  0  0
    7.0447   -0.3593    3.3472 C   0  0  0  0  0  0  0  0  0  0  0  0
    6.3684    1.0125    3.1959 C   0  0  0  0  0  0  0  0  0  0  0  0
    5.5680    1.2062    1.9108 C   0  0  0  0  0  0  0  0  0  0  0  0
    4.3474    1.0271    1.9566 O   0  0  0  0  0  0  0  0  0  0  0  0
    6.2263    1.7188    0.6215 C   0  0  3  0  0  0  0  0  0  0  0  0
    7.7311    1.8127    0.5132 C   0  0  0  0  0  0  0  0  0  0  0  0
    8.1926    1.1959   -0.5934 C   0  0  0  0  0  0  0  0  0  0  0  0
    7.0900    0.9408   -1.5754 C   0  0  0  0  0  0  0  0  0  0  0  0
    6.0167    0.7588   -0.5393 C   0  0  0  0  0  0  0  0  0  0  0  0
    5.1459   -0.0870   -0.6415 O   0  0  0  0  0  0  0  0  0  0  0  0
    9.2530    0.1979   -0.5643 C   0  0  0  0  0  0  0  0  0  0  0  0
   10.1350   -0.0242    0.4152 C   0  0  0  0  0  0  0  0  0  0  0  0
   11.3867   -3.7497   -3.7336 H   0  0  0  0  0  0  0  0  0  0  0  0
   10.0642   -2.5716   -3.6361 H   0  0  0  0  0  0  0  0  0  0  0  0
    9.7350   -4.2959   -3.3747 H   0  0  0  0  0  0  0  0  0  0  0  0
   11.4201   -2.4633   -1.5933 H   0  0  0  0  0  0  0  0  0  0  0  0
   11.2510   -4.2008   -1.3239 H   0  0  0  0  0  0  0  0  0  0  0  0
    8.8984   -4.0486   -0.9210 H   0  0  0  0  0  0  0  0  0  0  0  0
    8.7785   -2.4422   -1.5032 H   0  0  0  0  0  0  0  0  0  0  0  0
    9.9361   -3.5058    1.0794 H   0  0  0  0  0  0  0  0  0  0  0  0
    8.5939   -2.3987    0.8585 H   0  0  0  0  0  0  0  0  0  0  0  0
   11.5530   -1.6114    0.4879 H   0  0  0  0  0  0  0  0  0  0  0  0
   11.1404   -0.3839    2.7480 H   0  0  0  0  0  0  0  0  0  0  0  0
   11.4064   -3.4134    2.8230 H   0  0  0  0  0  0  0  0  0  0  0  0
   11.8840   -2.2548    4.0738 H   0  0  0  0  0  0  0  0  0  0  0  0
   12.6945   -2.2287    2.5109 H   0  0  0  0  0  0  0  0  0  0  0  0
    9.6135   -1.7068    4.3528 H   0  0  0  0  0  0  0  0  0  0  0  0
    8.7846   -2.3487    2.9651 H   0  0  0  0  0  0  0  0  0  0  0  0
    8.7739    0.3328    2.3694 H   0  0  0  0  0  0  0  0  0  0  0  0
    8.9064    0.4502    4.0891 H   0  0  0  0  0  0  0  0  0  0  0  0
    6.7912   -0.7838    4.3259 H   0  0  0  0  0  0  0  0  0  0  0  0
    6.6923   -1.0563    2.5837 H   0  0  0  0  0  0  0  0  0  0  0  0
    7.0545    1.8522    3.3331 H   0  0  0  0  0  0  0  0  0  0  0  0
    5.6376    1.1093    4.0147 H   0  0  0  0  0  0  0  0  0  0  0  0
    5.7771    2.6856    0.3762 H   0  0  0  0  0  0  0  0  0  0  0  0
    8.3390    2.0571    1.3752 H   0  0  0  0  0  0  0  0  0  0  0  0
    7.2008    0.0352   -2.1830 H   0  0  0  0  0  0  0  0  0  0  0  0
    6.8711    1.8040   -2.2086 H   0  0  0  0  0  0  0  0  0  0  0  0
    9.0413   -0.6044   -1.2593 H   0  0  0  0  0  0  0  0  0  0  0  0
   10.4115    0.8009    1.0595 H   0  0  0  0  0  0  0  0  0  0  0  0
  1  2  1  0  0  0  0
  1 22  1  0  0  0  0
  1 23  1  0  0  0  0
  1 24  1  0  0  0  0
  2  3  1  0  0  0  0
  2 25  1  0  0  0  0
  2 26  1  0  0  0  0
  3  4  1  0  0  0  0
  3 27  1  0  0  0  0
  3 28  1  0  0  0  0
  4  5  1  0  0  0  0
  4 29  1  0  0  0  0
  4 30  1  0  0  0  0
  5  6  1  0  0  0  0
  5 21  1  0  0  0  0
  5 31  1  0  0  0  0
  6  7  1  0  0  0  0
  6  8  1  0  0  0  0
  6 32  1  0  0  0  0
  7 33  1  0  0  0  0
  7 34  1  0  0  0  0
  7 35  1  0  0  0  0
  8  9  1  0  0  0  0
  8 36  1  0  0  0  0
  8 37  1  0  0  0  0
  9 10  1  0  0  0  0
  9 38  1  0  0  0  0
  9 39  1  0  0  0  0
 10 11  1  0  0  0  0
 10 40  1  0  0  0  0
 10 41  1  0  0  0  0
 11 12  1  0  0  0  0
 11 42  1  0  0  0  0
 11 43  1  0  0  0  0
 12 13  2  0  0  0  0
 12 14  1  0  0  0  0
 14 15  1  0  0  0  0
 14 18  1  0  0  0  0
 14 44  1  0  0  0  0
 15 16  2  0  0  0  0
 15 45  1  0  0  0  0
 16 17  1  0  0  0  0
 16 20  1  0  0  0  0
 17 18  1  0  0  0  0
 17 46  1  0  0  0  0
 17 47  1  0  0  0  0
 18 19  2  0  0  0  0
 20 21  2  3  0  0  0
 20 48  1  0  0  0  0
 21 49  1  0  0  0  0
M  END
$$$$
