
 OpenBabel04232216523D

 69 70  0  0  1  0  0  0  0  0999 V2000
    6.9185    1.8013    5.0185 C   0  0  0  0  0  0  0  0  0  0  0  0
    7.1713    0.6041    4.1209 C   0  0  0  0  0  0  0  0  0  0  0  0
    7.8874    1.0061    2.8321 C   0  0  0  0  0  0  0  0  0  0  0  0
    8.1364   -0.2403    1.9722 C   0  0  0  0  0  0  0  0  0  0  0  0
    8.7588    0.1336    0.6378 C   0  0  3  0  0  0  0  0  0  0  0  0
    9.0138   -1.1039   -0.2671 C   0  0  3  0  0  0  0  0  0  0  0  0
    8.0159   -1.1437   -1.4110 C   0  0  0  0  0  0  0  0  0  0  0  0
    8.2317   -2.3537   -2.3085 C   0  0  0  0  0  0  0  0  0  0  0  0
    7.2602   -2.3315   -3.4969 C   0  0  0  0  0  0  0  0  0  0  0  0
    7.4265   -1.1224   -4.4284 C   0  0  0  0  0  0  0  0  0  0  0  0
    8.8430   -0.9567   -4.9804 C   0  0  3  0  0  0  0  0  0  0  0  0
    9.3505   -2.2129   -5.7239 C   0  0  0  0  0  0  0  0  0  0  0  0
    9.9304   -3.1138   -5.0819 O   0  0  0  0  0  0  0  0  0  0  0  0
    8.9745   -2.4560   -7.1674 C   0  0  0  0  0  0  0  0  0  0  0  0
    9.3067   -1.3815   -8.0973 N   0  0  0  0  0  0  0  0  0  0  0  0
   10.4309   -0.5647   -7.8777 N   0  0  0  0  0  0  0  0  0  0  0  0
   11.5827   -0.8452   -8.7436 C   0  0  0  0  0  0  0  0  0  0  0  0
   11.9114   -2.3000   -9.0688 C   0  0  0  0  0  0  0  0  0  0  0  0
   11.5419   -2.8935  -10.4443 C   0  0  0  0  0  0  0  0  0  0  0  0
   10.1640   -3.0078  -11.1234 C   0  0  0  0  0  0  0  0  0  0  0  0
    8.8966   -3.4110  -10.3751 C   0  0  0  0  0  0  0  0  0  0  0  0
    7.8967   -2.3241   -9.9282 C   0  0  0  0  0  0  0  0  0  0  0  0
    8.4163   -1.0657   -9.2128 C   0  0  3  0  0  0  0  0  0  0  0  0
    8.9311   -0.0454  -10.2451 C   0  0  0  0  0  0  0  0  0  0  0  0
    8.9147    0.2987   -5.6469 O   0  0  0  0  0  0  0  0  0  0  0  0
   10.3806   -0.4810   -0.5168 C   0  0  0  0  0  0  0  0  0  0  0  0
   10.2597    0.3486    0.5536 C   0  0  0  0  0  0  0  0  0  0  0  0
    6.4124    1.4824    5.9350 H   0  0  0  0  0  0  0  0  0  0  0  0
    6.2839    2.5404    4.5193 H   0  0  0  0  0  0  0  0  0  0  0  0
    7.8588    2.2864    5.3000 H   0  0  0  0  0  0  0  0  0  0  0  0
    6.2135    0.1259    3.8841 H   0  0  0  0  0  0  0  0  0  0  0  0
    7.7737   -0.1328    4.6658 H   0  0  0  0  0  0  0  0  0  0  0  0
    8.8334    1.4979    3.0536 H   0  0  0  0  0  0  0  0  0  0  0  0
    7.2693    1.7173    2.2711 H   0  0  0  0  0  0  0  0  0  0  0  0
    7.1775   -0.7379    1.7839 H   0  0  0  0  0  0  0  0  0  0  0  0
    8.7652   -0.9577    2.5183 H   0  0  0  0  0  0  0  0  0  0  0  0
    8.1766    0.9259    0.1474 H   0  0  0  0  0  0  0  0  0  0  0  0
    9.0545   -2.0596    0.2742 H   0  0  0  0  0  0  0  0  0  0  0  0
    8.0774   -0.2106   -1.9798 H   0  0  0  0  0  0  0  0  0  0  0  0
    7.0027   -1.2007   -0.9969 H   0  0  0  0  0  0  0  0  0  0  0  0
    8.0703   -3.2746   -1.7315 H   0  0  0  0  0  0  0  0  0  0  0  0
    9.2688   -2.3972   -2.6485 H   0  0  0  0  0  0  0  0  0  0  0  0
    6.2309   -2.3268   -3.1085 H   0  0  0  0  0  0  0  0  0  0  0  0
    7.3607   -3.2619   -4.0630 H   0  0  0  0  0  0  0  0  0  0  0  0
    7.1268   -0.2103   -3.9339 H   0  0  0  0  0  0  0  0  0  0  0  0
    6.7163   -1.2178   -5.2667 H   0  0  0  0  0  0  0  0  0  0  0  0
    9.5428   -0.8266   -4.1392 H   0  0  0  0  0  0  0  0  0  0  0  0
    7.9027   -2.6766   -7.1711 H   0  0  0  0  0  0  0  0  0  0  0  0
    9.4957   -3.3640   -7.4763 H   0  0  0  0  0  0  0  0  0  0  0  0
   10.7310   -0.4921   -6.9017 H   0  0  0  0  0  0  0  0  0  0  0  0
   12.4384   -0.4358   -8.1911 H   0  0  0  0  0  0  0  0  0  0  0  0
   11.5430   -0.2306   -9.6470 H   0  0  0  0  0  0  0  0  0  0  0  0
   11.6277   -2.9771   -8.2583 H   0  0  0  0  0  0  0  0  0  0  0  0
   13.0093   -2.3283   -9.0658 H   0  0  0  0  0  0  0  0  0  0  0  0
   11.9452   -3.9166  -10.4166 H   0  0  0  0  0  0  0  0  0  0  0  0
   12.1774   -2.3754  -11.1770 H   0  0  0  0  0  0  0  0  0  0  0  0
   10.3149   -3.8077  -11.8529 H   0  0  0  0  0  0  0  0  0  0  0  0
    9.9728   -2.1365  -11.7603 H   0  0  0  0  0  0  0  0  0  0  0  0
    9.1208   -4.1075   -9.5656 H   0  0  0  0  0  0  0  0  0  0  0  0
    8.3121   -4.0138  -11.0926 H   0  0  0  0  0  0  0  0  0  0  0  0
    7.1600   -2.8196   -9.2831 H   0  0  0  0  0  0  0  0  0  0  0  0
    7.3098   -2.0102  -10.8045 H   0  0  0  0  0  0  0  0  0  0  0  0
    7.5355   -0.5808   -8.7660 H   0  0  0  0  0  0  0  0  0  0  0  0
    9.8268   -0.3830  -10.7705 H   0  0  0  0  0  0  0  0  0  0  0  0
    9.1641    0.9142   -9.7760 H   0  0  0  0  0  0  0  0  0  0  0  0
    8.1726    0.1456  -11.0130 H   0  0  0  0  0  0  0  0  0  0  0  0
    8.5166    0.1996   -6.5317 H   0  0  0  0  0  0  0  0  0  0  0  0
   11.2004   -0.7374   -1.1833 H   0  0  0  0  0  0  0  0  0  0  0  0
   10.9340    1.0606    1.0237 H   0  0  0  0  0  0  0  0  0  0  0  0
  1  2  1  0  0  0  0
  1 28  1  0  0  0  0
  1 29  1  0  0  0  0
  1 30  1  0  0  0  0
  2  3  1  0  0  0  0
  2 31  1  0  0  0  0
  2 32  1  0  0  0  0
  3  4  1  0  0  0  0
  3 33  1  0  0  0  0
  3 34  1  0  0  0  0
  4  5  1  0  0  0  0
  4 35  1  0  0  0  0
  4 36  1  0  0  0  0
  5  6  1  0  0  0  0
  5 27  1  0  0  0  0
  5 37  1  0  0  0  0
  6  7  1  0  0  0  0
  6 26  1  0  0  0  0
  6 38  1  0  0  0  0
  7  8  1  0  0  0  0
  7 39  1  0  0  0  0
  7 40  1  0  0  0  0
  8  9  1  0  0  0  0
  8 41  1  0  0  0  0
  8 42  1  0  0  0  0
  9 10  1  0  0  0  0
  9 43  1  0  0  0  0
  9 44  1  0  0  0  0
 10 11  1  0  0  0  0
 10 45  1  0  0  0  0
 10 46  1  0  0  0  0
 11 12  1  0  0  0  0
 11 25  1  0  0  0  0
 11 47  1  0  0  0  0
 12 13  2  0  0  0  0
 12 14  1  0  0  0  0
 14 15  1  0  0  0  0
 14 48  1  0  0  0  0
 14 49  1  0  0  0  0
 15 16  1  0  0  0  0
 15 23  1  0  0  0  0
 16 17  1  0  0  0  0
 16 50  1  0  0  0  0
 17 18  1  0  0  0  0
 17 51  1  0  0  0  0
 17 52  1  0  0  0  0
 18 19  1  0  0  0  0
 18 53  1  0  0  0  0
 18 54  1  0  0  0  0
 19 20  1  0  0  0  0
 19 55  1  0  0  0  0
 19 56  1  0  0  0  0
 20 21  1  0  0  0  0
 20 57  1  0  0  0  0
 20 58  1  0  0  0  0
 21 22  1  0  0  0  0
 21 59  1  0  0  0  0
 21 60  1  0  0  0  0
 22 23  1  0  0  0  0
 22 61  1  0  0  0  0
 22 62  1  0  0  0  0
 23 24  1  0  0  0  0
 23 63  1  0  0  0  0
 24 64  1  0  0  0  0
 24 65  1  0  0  0  0
 24 66  1  0  0  0  0
 25 67  1  0  0  0  0
 26 27  2  0  0  0  0
 26 68  1  0  0  0  0
 27 69  1  0  0  0  0
M  END
$$$$
