
 OpenBabel04232216423D

 54 55  0  0  0  0  0  0  0  0999 V2000
    3.8807   -0.9266    1.1319 C   0  0  0  0  0  0  0  0  0  0  0  0
    3.1499   -0.2504    2.2285 C   0  0  0  0  0  0  0  0  0  0  0  0
    1.9277   -0.6405    2.7517 C   0  0  0  0  0  0  0  0  0  0  0  0
    1.0273   -1.4071    1.7965 C   0  0  0  0  0  0  0  0  0  0  0  0
   -0.4618   -1.1251    1.7701 C   0  0  0  0  0  0  0  0  0  0  0  0
    1.9074   -0.9891    4.2860 C   0  0  0  0  0  0  0  0  0  0  0  0
    0.6376   -1.8804    4.9850 C   0  0  0  0  0  0  0  0  0  0  0  0
   -0.9618   -1.7477    5.3012 C   0  0  0  0  0  0  0  0  0  0  0  0
   -1.6852   -2.8637    6.1996 C   0  0  0  0  0  0  0  0  0  0  0  0
   -2.3297   -4.2064    5.7788 C   0  0  0  0  0  0  0  0  0  0  0  0
   -1.7916   -5.3396    5.4405 N   0  0  0  0  0  0  0  0  0  0  0  0
   -0.5284   -5.3097    4.9782 C   0  0  0  0  0  0  0  0  0  0  0  0
    0.6353   -5.2520    5.6566 C   0  0  0  0  0  0  0  0  0  0  0  0
    1.7662   -4.8946    4.8436 C   0  0  0  0  0  0  0  0  0  0  0  0
    2.9461   -4.4308    5.2664 C   0  0  0  0  0  0  0  0  0  0  0  0
    3.6222   -3.7525    4.1688 C   0  0  0  0  0  0  0  0  0  0  0  0
    3.6105   -2.4869    3.8797 N   0  0  0  0  0  0  0  0  0  0  0  0
    3.1779   -1.4315    4.6839 C   0  0  0  0  0  0  0  0  0  0  0  0
    4.4775   -0.5181    4.6662 C   0  0  0  0  0  0  0  0  0  0  0  0
    5.6682   -1.1591    4.5534 C   0  0  0  0  0  0  0  0  0  0  0  0
    6.9981   -1.0662    3.9418 C   0  0  0  0  0  0  0  0  0  0  0  0
    7.8101    0.0210    3.2601 C   0  0  0  0  0  0  0  0  0  0  0  0
    7.3831   -2.3020    3.5579 C   0  0  0  0  0  0  0  0  0  0  0  0
    7.1487   -2.6499    2.1600 C   0  0  0  0  0  0  0  0  0  0  0  0
    6.2273   -2.3363    1.2331 C   0  0  0  0  0  0  0  0  0  0  0  0
    4.9849   -1.6604    0.8747 C   0  0  0  0  0  0  0  0  0  0  0  0
    3.2964   -0.7578    0.2242 H   0  0  0  0  0  0  0  0  0  0  0  0
    3.2221    0.8372    2.0911 H   0  0  0  0  0  0  0  0  0  0  0  0
    1.3220   -1.1274    0.7762 H   0  0  0  0  0  0  0  0  0  0  0  0
    1.2165   -2.4795    1.8875 H   0  0  0  0  0  0  0  0  0  0  0  0
   -0.6956   -0.0571    1.7482 H   0  0  0  0  0  0  0  0  0  0  0  0
   -0.9657   -1.5941    2.6026 H   0  0  0  0  0  0  0  0  0  0  0  0
   -0.8895   -1.5801    0.8681 H   0  0  0  0  0  0  0  0  0  0  0  0
    1.0284   -2.0792    5.9989 H   0  0  0  0  0  0  0  0  0  0  0  0
    0.6469   -2.7896    4.3962 H   0  0  0  0  0  0  0  0  0  0  0  0
   -1.1200   -0.8125    5.8551 H   0  0  0  0  0  0  0  0  0  0  0  0
   -1.5588   -1.6715    4.3952 H   0  0  0  0  0  0  0  0  0  0  0  0
   -2.6009   -2.3584    6.5647 H   0  0  0  0  0  0  0  0  0  0  0  0
   -1.1195   -3.0694    7.1148 H   0  0  0  0  0  0  0  0  0  0  0  0
   -3.4306   -4.2703    5.8986 H   0  0  0  0  0  0  0  0  0  0  0  0
   -0.5038   -5.2901    3.9003 H   0  0  0  0  0  0  0  0  0  0  0  0
    0.7042   -5.2373    6.7403 H   0  0  0  0  0  0  0  0  0  0  0  0
    1.5378   -4.7798    3.7751 H   0  0  0  0  0  0  0  0  0  0  0  0
    3.3186   -4.3429    6.2699 H   0  0  0  0  0  0  0  0  0  0  0  0
    3.9743   -4.3987    3.3685 H   0  0  0  0  0  0  0  0  0  0  0  0
    4.3486    0.5259    4.3843 H   0  0  0  0  0  0  0  0  0  0  0  0
    5.5798   -2.1950    4.8934 H   0  0  0  0  0  0  0  0  0  0  0  0
    7.2492    0.5389    2.4788 H   0  0  0  0  0  0  0  0  0  0  0  0
    8.6649   -0.4404    2.7133 H   0  0  0  0  0  0  0  0  0  0  0  0
    8.2987    0.7180    3.9417 H   0  0  0  0  0  0  0  0  0  0  0  0
    8.4576   -2.5332    3.7280 H   0  0  0  0  0  0  0  0  0  0  0  0
    7.9945   -3.2464    1.7875 H   0  0  0  0  0  0  0  0  0  0  0  0
    6.6115   -2.7405    0.2812 H   0  0  0  0  0  0  0  0  0  0  0  0
    4.9068   -1.9272   -0.1914 H   0  0  0  0  0  0  0  0  0  0  0  0
  1  2  1  0  0  0  0
  1 26  2  3  0  0  0
  1 27  1  0  0  0  0
  2  3  2  3  0  0  0
  2 28  1  0  0  0  0
  3  4  1  0  0  0  0
  3  6  1  0  0  0  0
  4  5  1  0  0  0  0
  4 29  1  0  0  0  0
  4 30  1  0  0  0  0
  5 31  1  0  0  0  0
  5 32  1  0  0  0  0
  5 33  1  0  0  0  0
  6  7  1  0  0  0  0
  6 18  2  3  0  0  0
  7  8  1  0  0  0  0
  7 34  1  0  0  0  0
  7 35  1  0  0  0  0
  8  9  1  0  0  0  0
  8 36  1  0  0  0  0
  8 37  1  0  0  0  0
  9 10  1  0  0  0  0
  9 38  1  0  0  0  0
  9 39  1  0  0  0  0
 10 11  2  3  0  0  0
 10 40  1  0  0  0  0
 11 12  1  0  0  0  0
 12 13  2  3  0  0  0
 12 41  1  0  0  0  0
 13 14  1  0  0  0  0
 13 42  1  0  0  0  0
 14 15  2  3  0  0  0
 14 43  1  0  0  0  0
 15 16  1  0  0  0  0
 15 44  1  0  0  0  0
 16 17  2  3  0  0  0
 16 45  1  0  0  0  0
 17 18  1  0  0  0  0
 18 19  1  0  0  0  0
 19 20  2  3  0  0  0
 19 46  1  0  0  0  0
 20 21  1  0  0  0  0
 20 47  1  0  0  0  0
 21 22  1  0  0  0  0
 21 23  2  3  0  0  0
 22 48  1  0  0  0  0
 22 49  1  0  0  0  0
 22 50  1  0  0  0  0
 23 24  1  0  0  0  0
 23 51  1  0  0  0  0
 24 25  2  3  0  0  0
 24 52  1  0  0  0  0
 25 26  1  0  0  0  0
 25 53  1  0  0  0  0
 26 54  1  0  0  0  0
M  END
$$$$
