
 OpenBabel04232216523D

 36 36  0  0  0  0  0  0  0  0999 V2000
    4.7757   -1.6434    2.7613 C   0  0  0  0  0  0  0  0  0  0  0  0
    4.3796   -0.8360    1.5304 C   0  0  0  0  0  0  0  0  0  0  0  0
    4.7694   -1.6000    0.2638 C   0  0  0  0  0  0  0  0  0  0  0  0
    4.4214   -0.8791   -1.0482 C   0  0  0  0  0  0  0  0  0  0  0  0
    4.8705   -1.6800   -2.3088 C   0  0  0  0  0  0  0  0  0  0  0  0
    4.1525   -3.0409   -2.3819 C   0  0  0  0  0  0  0  0  0  0  0  0
    4.5706   -3.9876   -3.5052 C   0  0  0  0  0  0  0  0  0  0  0  0
    4.1910   -3.6401   -4.9436 C   0  0  0  0  0  0  0  0  0  0  0  0
    2.8367   -2.9522   -5.1326 C   0  0  0  0  0  0  0  0  0  0  0  0
    2.9395   -1.4459   -5.3434 C   0  0  0  0  0  0  0  0  0  0  0  0
    3.3138   -0.6131   -4.1133 C   0  0  0  0  0  0  0  0  0  0  0  0
    4.7368   -0.8198   -3.5837 C   0  0  0  0  0  0  0  0  0  0  0  0
    4.4768   -1.1297    3.6793 H   0  0  0  0  0  0  0  0  0  0  0  0
    5.8596   -1.7980    2.7940 H   0  0  0  0  0  0  0  0  0  0  0  0
    4.2962   -2.6292    2.7536 H   0  0  0  0  0  0  0  0  0  0  0  0
    4.8738    0.1412    1.5584 H   0  0  0  0  0  0  0  0  0  0  0  0
    3.2982   -0.6611    1.5456 H   0  0  0  0  0  0  0  0  0  0  0  0
    4.2580   -2.5683    0.3031 H   0  0  0  0  0  0  0  0  0  0  0  0
    5.8476   -1.8020    0.2824 H   0  0  0  0  0  0  0  0  0  0  0  0
    4.9171    0.1007   -1.0453 H   0  0  0  0  0  0  0  0  0  0  0  0
    3.3417   -0.6877   -1.0849 H   0  0  0  0  0  0  0  0  0  0  0  0
    5.9446   -1.8789   -2.1858 H   0  0  0  0  0  0  0  0  0  0  0  0
    3.0670   -2.9005   -2.3707 H   0  0  0  0  0  0  0  0  0  0  0  0
    4.3751   -3.5942   -1.4629 H   0  0  0  0  0  0  0  0  0  0  0  0
    4.1145   -4.9615   -3.2815 H   0  0  0  0  0  0  0  0  0  0  0  0
    5.6535   -4.1543   -3.4579 H   0  0  0  0  0  0  0  0  0  0  0  0
    4.1735   -4.5872   -5.5017 H   0  0  0  0  0  0  0  0  0  0  0  0
    4.9902   -3.0597   -5.4168 H   0  0  0  0  0  0  0  0  0  0  0  0
    2.1393   -3.1945   -4.3246 H   0  0  0  0  0  0  0  0  0  0  0  0
    2.3852   -3.3728   -6.0417 H   0  0  0  0  0  0  0  0  0  0  0  0
    1.9582   -1.0952   -5.6889 H   0  0  0  0  0  0  0  0  0  0  0  0
    3.6371   -1.2321   -6.1614 H   0  0  0  0  0  0  0  0  0  0  0  0
    2.5668   -0.7510   -3.3269 H   0  0  0  0  0  0  0  0  0  0  0  0
    3.2311    0.4405   -4.4201 H   0  0  0  0  0  0  0  0  0  0  0  0
    5.1606    0.1702   -3.3637 H   0  0  0  0  0  0  0  0  0  0  0  0
    5.3845   -1.2185   -4.3709 H   0  0  0  0  0  0  0  0  0  0  0  0
  1  2  1  0  0  0  0
  1 13  1  0  0  0  0
  1 14  1  0  0  0  0
  1 15  1  0  0  0  0
  2  3  1  0  0  0  0
  2 16  1  0  0  0  0
  2 17  1  0  0  0  0
  3  4  1  0  0  0  0
  3 18  1  0  0  0  0
  3 19  1  0  0  0  0
  4  5  1  0  0  0  0
  4 20  1  0  0  0  0
  4 21  1  0  0  0  0
  5  6  1  0  0  0  0
  5 12  1  0  0  0  0
  5 22  1  0  0  0  0
  6  7  1  0  0  0  0
  6 23  1  0  0  0  0
  6 24  1  0  0  0  0
  7  8  1  0  0  0  0
  7 25  1  0  0  0  0
  7 26  1  0  0  0  0
  8  9  1  0  0  0  0
  8 27  1  0  0  0  0
  8 28  1  0  0  0  0
  9 10  1  0  0  0  0
  9 29  1  0  0  0  0
  9 30  1  0  0  0  0
 10 11  1  0  0  0  0
 10 31  1  0  0  0  0
 10 32  1  0  0  0  0
 11 12  1  0  0  0  0
 11 33  1  0  0  0  0
 11 34  1  0  0  0  0
 12 35  1  0  0  0  0
 12 36  1  0  0  0  0
M  END
$$$$
