
 OpenBabel04232216423D

 10 11  0  0  0  0  0  0  0  0999 V2000
   -0.7488    1.3026    0.0970 C   0  0  0  0  0  0  0  0  0  0  0  0
    0.6445    1.3622   -0.0375 C   0  0  0  0  0  0  0  0  0  0  0  0
    0.7645    0.0420    0.0248 C   0  0  0  0  0  0  0  0  0  0  0  0
    0.7270   -1.3570    0.0923 C   0  0  0  0  0  0  0  0  0  0  0  0
   -0.6006   -1.4134   -0.0417 C   0  0  0  0  0  0  0  0  0  0  0  0
   -0.7564   -0.0227    0.0304 C   0  0  0  0  0  0  0  0  0  0  0  0
   -1.5331    2.0517    0.1528 H   0  0  0  0  0  0  0  0  0  0  0  0
    1.3621    2.1753   -0.0906 H   0  0  0  0  0  0  0  0  0  0  0  0
    1.5023   -2.1153    0.1541 H   0  0  0  0  0  0  0  0  0  0  0  0
   -1.3089   -2.2347   -0.1073 H   0  0  0  0  0  0  0  0  0  0  0  0
  1  2  1  0  0  0  0
  1  6  2  0  0  0  0
  1  7  1  0  0  0  0
  2  3  2  0  0  0  0
  2  8  1  0  0  0  0
  3  4  1  0  0  0  0
  3  6  1  0  0  0  0
  4  5  2  0  0  0  0
  4  9  1  0  0  0  0
  5  6  1  0  0  0  0
  5 10  1  0  0  0  0
M  END
$$$$
