
 OpenBabel04232216423D

163162  0  0  0  0  0  0  0  0999 V2000
   22.5773   27.5215    2.8916 C   0  0  0  0  0  0  0  0  0  0  0  0
   23.4278   26.8153    3.6396 C   0  0  0  0  0  0  0  0  0  0  0  0
   23.9165   25.4689    3.2252 C   0  0  0  0  0  0  0  0  0  0  0  0
   23.5522   24.4399    4.2199 N   0  0  0  0  0  0  0  0  0  0  0  0
   24.0327   23.1773    3.7893 N   0  0  0  0  0  0  0  0  0  0  0  0
   23.6851   22.1885    4.7527 N   0  0  0  0  0  0  0  0  0  0  0  0
   24.1544   20.9146    4.3422 N   0  0  0  0  0  0  0  0  0  0  0  0
   25.5758   20.9469    4.2069 N   0  0  0  0  0  0  0  0  0  0  0  0
   26.1689   21.2907    5.4605 N   0  0  0  0  0  0  0  0  0  0  0  0
   25.8040   20.3189    6.4434 N   0  0  0  0  0  0  0  0  0  0  0  0
   26.2586   19.0297    6.0290 N   0  0  0  0  0  0  0  0  0  0  0  0
   27.6791   19.0559    5.8716 N   0  0  0  0  0  0  0  0  0  0  0  0
   28.2889   19.4109    7.1153 N   0  0  0  0  0  0  0  0  0  0  0  0
   27.9261   18.4547    8.1130 N   0  0  0  0  0  0  0  0  0  0  0  0
   28.3654   17.1567    7.7096 N   0  0  0  0  0  0  0  0  0  0  0  0
   29.7844   17.1665    7.5387 N   0  0  0  0  0  0  0  0  0  0  0  0
   30.4081   17.5344    8.7718 N   0  0  0  0  0  0  0  0  0  0  0  0
   30.0408   16.5898    9.7837 N   0  0  0  0  0  0  0  0  0  0  0  0
   30.4670   15.2801    9.3823 N   0  0  0  0  0  0  0  0  0  0  0  0
   31.8905   15.2828    9.1971 N   0  0  0  0  0  0  0  0  0  0  0  0
   32.5274   15.6551   10.4278 N   0  0  0  0  0  0  0  0  0  0  0  0
   32.1705   14.7199   11.4513 N   0  0  0  0  0  0  0  0  0  0  0  0
   32.5770   13.4123   11.0644 N   0  0  0  0  0  0  0  0  0  0  0  0
   33.9858   13.3956   10.8666 N   0  0  0  0  0  0  0  0  0  0  0  0
   34.6383   13.7722   12.0745 N   0  0  0  0  0  0  0  0  0  0  0  0
   34.2846   12.8603   13.1120 N   0  0  0  0  0  0  0  0  0  0  0  0
   34.6801   11.5390   12.7413 N   0  0  0  0  0  0  0  0  0  0  0  0
   36.0921   11.5049   12.5317 N   0  0  0  0  0  0  0  0  0  0  0  0
   36.7582   11.8936   13.7331 N   0  0  0  0  0  0  0  0  0  0  0  0
   36.3977   10.9925   14.7805 N   0  0  0  0  0  0  0  0  0  0  0  0
   36.7784    9.6672   14.4093 N   0  0  0  0  0  0  0  0  0  0  0  0
   38.1910    9.6163   14.1977 N   0  0  0  0  0  0  0  0  0  0  0  0
   38.8805    9.9905   15.3915 N   0  0  0  0  0  0  0  0  0  0  0  0
   38.5435    9.1027   16.4493 N   0  0  0  0  0  0  0  0  0  0  0  0
   38.9160    7.7759   16.1057 N   0  0  0  0  0  0  0  0  0  0  0  0
   40.3167    7.7056   15.8770 N   0  0  0  0  0  0  0  0  0  0  0  0
   41.0209    8.0975   17.0494 N   0  0  0  0  0  0  0  0  0  0  0  0
   40.6825    7.2233   18.1304 N   0  0  0  0  0  0  0  0  0  0  0  0
   41.0324    5.8766   17.7912 N   0  0  0  0  0  0  0  0  0  0  0  0
   42.4411    5.7947   17.5403 N   0  0  0  0  0  0  0  0  0  0  0  0
   43.1624    6.1905   18.7123 N   0  0  0  0  0  0  0  0  0  0  0  0
   42.8252    5.3375   19.8069 N   0  0  0  0  0  0  0  0  0  0  0  0
   43.1506    3.9910   19.4739 N   0  0  0  0  0  0  0  0  0  0  0  0
   44.5450    3.9092   19.1976 N   0  0  0  0  0  0  0  0  0  0  0  0
   45.2698    4.3339   20.3539 N   0  0  0  0  0  0  0  0  0  0  0  0
   44.9211    3.4896   21.4528 N   0  0  0  0  0  0  0  0  0  0  0  0
   45.2454    2.1409   21.1285 N   0  0  0  0  0  0  0  0  0  0  0  0
   46.6359    2.0300   20.8648 N   0  0  0  0  0  0  0  0  0  0  0  0
   47.3805    2.4420   21.9976 N   0  0  0  0  0  0  0  0  0  0  0  0
   47.0509    1.6198   23.1016 N   0  0  0  0  0  0  0  0  0  0  0  0
   47.3586    0.2681   22.7962 N   0  0  0  0  0  0  0  0  0  0  0  0
   48.7469    0.1375   22.5207 N   0  0  0  0  0  0  0  0  0  0  0  0
   49.5104    0.5534   23.6452 N   0  0  0  0  0  0  0  0  0  0  0  0
   49.1830   -0.2532   24.7678 N   0  0  0  0  0  0  0  0  0  0  0  0
   49.4753   -1.6174   24.4774 N   0  0  0  0  0  0  0  0  0  0  0  0
   50.8647   -1.7649   24.1853 N   0  0  0  0  0  0  0  0  0  0  0  0
   51.6472   -1.3359   25.2967 N   0  0  0  0  0  0  0  0  0  0  0  0
   51.3226   -2.1248   26.4367 N   0  0  0  0  0  0  0  0  0  0  0  0
   51.5991   -3.4960   26.1569 N   0  0  0  0  0  0  0  0  0  0  0  0
   52.9834   -3.6538   25.8358 N   0  0  0  0  0  0  0  0  0  0  0  0
   53.7796   -3.2157   26.9425 N   0  0  0  0  0  0  0  0  0  0  0  0
   53.4606   -4.0050   28.0988 N   0  0  0  0  0  0  0  0  0  0  0  0
   53.7148   -5.3908   27.8115 N   0  0  0  0  0  0  0  0  0  0  0  0
   55.1029   -5.5437   27.4808 N   0  0  0  0  0  0  0  0  0  0  0  0
   55.9029   -5.0924   28.5871 N   0  0  0  0  0  0  0  0  0  0  0  0
   55.5698   -5.8709   29.7506 N   0  0  0  0  0  0  0  0  0  0  0  0
   55.8216   -7.2634   29.4759 N   0  0  0  0  0  0  0  0  0  0  0  0
   57.2128   -7.4401   29.1371 N   0  0  0  0  0  0  0  0  0  0  0  0
   58.0357   -6.9972   30.2388 N   0  0  0  0  0  0  0  0  0  0  0  0
   57.7167   -7.7646   31.4152 N   0  0  0  0  0  0  0  0  0  0  0  0
   57.9505   -9.1543   31.1484 N   0  0  0  0  0  0  0  0  0  0  0  0
   59.3314   -9.3393   30.8007 N   0  0  0  0  0  0  0  0  0  0  0  0
   60.1548   -8.8886   31.8844 N   0  0  0  0  0  0  0  0  0  0  0  0
   59.8334   -9.6371   33.0617 N   0  0  0  0  0  0  0  0  0  0  0  0
   60.0590  -11.0299   32.8102 N   0  0  0  0  0  0  0  0  0  0  0  0
   61.4329  -11.2304   32.4553 N   0  0  0  0  0  0  0  0  0  0  0  0
   62.2728  -10.7832   33.5252 N   0  0  0  0  0  0  0  0  0  0  0  0
   61.9717  -11.5214   34.7146 N   0  0  0  0  0  0  0  0  0  0  0  0
   62.1834  -12.9151   34.4871 N   0  0  0  0  0  0  0  0  0  0  0  0
   63.5426  -13.1423   34.1221 N   0  0  0  0  0  0  0  0  0  0  0  0
   22.2247   28.4944    3.1982 H   0  0  0  0  0  0  0  0  0  0  0  0
   22.2189   27.1254    1.9546 H   0  0  0  0  0  0  0  0  0  0  0  0
   23.7713   27.2418    4.5735 H   0  0  0  0  0  0  0  0  0  0  0  0
   25.0056   25.5045    3.1152 H   0  0  0  0  0  0  0  0  0  0  0  0
   23.4900   25.2052    2.2510 H   0  0  0  0  0  0  0  0  0  0  0  0
   22.5261   24.4462    4.2903 H   0  0  0  0  0  0  0  0  0  0  0  0
   25.0459   23.2257    3.6847 H   0  0  0  0  0  0  0  0  0  0  0  0
   22.6668   22.1685    4.8420 H   0  0  0  0  0  0  0  0  0  0  0  0
   23.7304   20.6986    3.4413 H   0  0  0  0  0  0  0  0  0  0  0  0
   25.8046   21.6598    3.5158 H   0  0  0  0  0  0  0  0  0  0  0  0
   25.8072   22.2057    5.7438 H   0  0  0  0  0  0  0  0  0  0  0  0
   24.7835   20.3147    6.5144 H   0  0  0  0  0  0  0  0  0  0  0  0
   25.8228   18.8096    5.1325 H   0  0  0  0  0  0  0  0  0  0  0  0
   27.9111   19.7586    5.1682 H   0  0  0  0  0  0  0  0  0  0  0  0
   27.9479   20.3317    7.3937 H   0  0  0  0  0  0  0  0  0  0  0  0
   26.9107   18.4510    8.2074 H   0  0  0  0  0  0  0  0  0  0  0  0
   27.9242   16.9213    6.8213 H   0  0  0  0  0  0  0  0  0  0  0  0
   30.0249   17.8554    6.8269 H   0  0  0  0  0  0  0  0  0  0  0  0
   30.0833   18.4709    9.0406 H   0  0  0  0  0  0  0  0  0  0  0  0
   29.0162   16.6031    9.8951 H   0  0  0  0  0  0  0  0  0  0  0  0
   30.0001   15.0313    8.4964 H   0  0  0  0  0  0  0  0  0  0  0  0
   32.1378   15.9585    8.4583 H   0  0  0  0  0  0  0  0  0  0  0  0
   32.2209   16.5963   10.7039 H   0  0  0  0  0  0  0  0  0  0  0  0
   31.1618   14.7232   11.5859 H   0  0  0  0  0  0  0  0  0  0  0  0
   32.1295   13.1347   10.2000 H   0  0  0  0  0  0  0  0  0  0  0  0
   34.2562   14.0459   10.1431 H   0  0  0  0  0  0  0  0  0  0  0  0
   34.3586   14.6972   12.3630 H   0  0  0  0  0  0  0  0  0  0  0  0
   33.2869   12.8561   13.2604 H   0  0  0  0  0  0  0  0  0  0  0  0
   34.2306   11.2601   11.8820 H   0  0  0  0  0  0  0  0  0  0  0  0
   36.3599   12.1462   11.8006 H   0  0  0  0  0  0  0  0  0  0  0  0
   36.4868   12.8306   14.0138 H   0  0  0  0  0  0  0  0  0  0  0  0
   35.3939   11.0082   14.9387 H   0  0  0  0  0  0  0  0  0  0  0  0
   36.3084    9.3761   13.5540 H   0  0  0  0  0  0  0  0  0  0  0  0
   38.4670   10.2575   13.4524 H   0  0  0  0  0  0  0  0  0  0  0  0
   38.6225   10.9284   15.6739 H   0  0  0  0  0  0  0  0  0  0  0  0
   37.5448    9.1138   16.6168 H   0  0  0  0  0  0  0  0  0  0  0  0
   38.4451    7.4971   15.2538 H   0  0  0  0  0  0  0  0  0  0  0  0
   40.5708    8.3445   15.1320 H   0  0  0  0  0  0  0  0  0  0  0  0
   40.7437    9.0547   17.2895 H   0  0  0  0  0  0  0  0  0  0  0  0
   39.6606    7.2930   18.2728 H   0  0  0  0  0  0  0  0  0  0  0  0
   40.5014    5.6309   16.9319 H   0  0  0  0  0  0  0  0  0  0  0  0
   42.6466    6.4470   16.7558 H   0  0  0  0  0  0  0  0  0  0  0  0
   42.8831    7.1565   18.9282 H   0  0  0  0  0  0  0  0  0  0  0  0
   41.8133    5.4168   19.9537 H   0  0  0  0  0  0  0  0  0  0  0  0
   42.6273    3.7426   18.6364 H   0  0  0  0  0  0  0  0  0  0  0  0
   44.7471    4.5404   18.4154 H   0  0  0  0  0  0  0  0  0  0  0  0
   45.0039    5.3053   20.5649 H   0  0  0  0  0  0  0  0  0  0  0  0
   43.9140    3.5702   21.6333 H   0  0  0  0  0  0  0  0  0  0  0  0
   44.7344    1.8409   20.3062 H   0  0  0  0  0  0  0  0  0  0  0  0
   46.8971    2.6228   20.0862 H   0  0  0  0  0  0  0  0  0  0  0  0
   47.1643    3.4109   22.2302 H   0  0  0  0  0  0  0  0  0  0  0  0
   46.0517    1.6945   23.3042 H   0  0  0  0  0  0  0  0  0  0  0  0
   46.8288   -0.0278   21.9718 H   0  0  0  0  0  0  0  0  0  0  0  0
   48.9960    0.7277   21.7353 H   0  0  0  0  0  0  0  0  0  0  0  0
   49.2893    1.5265   23.8630 H   0  0  0  0  0  0  0  0  0  0  0  0
   48.1808   -0.1573   24.9643 H   0  0  0  0  0  0  0  0  0  0  0  0
   48.9271   -1.9012   23.6564 H   0  0  0  0  0  0  0  0  0  0  0  0
   51.0905   -1.1761   23.3853 H   0  0  0  0  0  0  0  0  0  0  0  0
   51.4258   -0.3498   25.4825 H   0  0  0  0  0  0  0  0  0  0  0  0
   50.3190   -2.0022   26.6344 H   0  0  0  0  0  0  0  0  0  0  0  0
   51.0408   -3.7824   25.3486 H   0  0  0  0  0  0  0  0  0  0  0  0
   53.1781   -3.0680   25.0071 H   0  0  0  0  0  0  0  0  0  0  0  0
   53.5492   -2.2197   27.1128 H   0  0  0  0  0  0  0  0  0  0  0  0
   52.4552   -3.8833   28.2959 H   0  0  0  0  0  0  0  0  0  0  0  0
   53.1261   -5.6588   27.0042 H   0  0  0  0  0  0  0  0  0  0  0  0
   55.3071   -4.9605   26.6646 H   0  0  0  0  0  0  0  0  0  0  0  0
   55.6855   -4.1010   28.7609 H   0  0  0  0  0  0  0  0  0  0  0  0
   54.5712   -5.7409   29.9609 H   0  0  0  0  0  0  0  0  0  0  0  0
   55.2327   -7.5546   28.6847 H   0  0  0  0  0  0  0  0  0  0  0  0
   57.4296   -6.8771   28.3025 H   0  0  0  0  0  0  0  0  0  0  0  0
   57.8475   -5.9978   30.4086 H   0  0  0  0  0  0  0  0  0  0  0  0
   56.7263   -7.6344   31.6485 H   0  0  0  0  0  0  0  0  0  0  0  0
   57.3457   -9.4539   30.3695 H   0  0  0  0  0  0  0  0  0  0  0  0
   59.5492   -8.7918   29.9566 H   0  0  0  0  0  0  0  0  0  0  0  0
   59.9772   -7.8925   32.0624 H   0  0  0  0  0  0  0  0  0  0  0  0
   58.8473   -9.4797   33.3079 H   0  0  0  0  0  0  0  0  0  0  0  0
   59.4581  -11.3556   32.0422 H   0  0  0  0  0  0  0  0  0  0  0  0
   61.6693  -10.7055   31.6063 H   0  0  0  0  0  0  0  0  0  0  0  0
   62.1198   -9.7859   33.7059 H   0  0  0  0  0  0  0  0  0  0  0  0
   60.9909  -11.3610   34.9776 H   0  0  0  0  0  0  0  0  0  0  0  0
   61.5730  -13.2513   33.7300 H   0  0  0  0  0  0  0  0  0  0  0  0
   64.1600  -12.8140   34.8724 H   0  0  0  0  0  0  0  0  0  0  0  0
   63.7790  -12.6147   33.2752 H   0  0  0  0  0  0  0  0  0  0  0  0
  1  2  2  0  0  0  0
  1 81  1  0  0  0  0
  1 82  1  0  0  0  0
  2  3  1  0  0  0  0
  2 83  1  0  0  0  0
  3  4  1  0  0  0  0
  3 84  1  0  0  0  0
  3 85  1  0  0  0  0
  4  5  1  0  0  0  0
  4 86  1  0  0  0  0
  5  6  1  0  0  0  0
  5 87  1  0  0  0  0
  6  7  1  0  0  0  0
  6 88  1  0  0  0  0
  7  8  1  0  0  0  0
  7 89  1  0  0  0  0
  8  9  1  0  0  0  0
  8 90  1  0  0  0  0
  9 10  1  0  0  0  0
  9 91  1  0  0  0  0
 10 11  1  0  0  0  0
 10 92  1  0  0  0  0
 11 12  1  0  0  0  0
 11 93  1  0  0  0  0
 12 13  1  0  0  0  0
 12 94  1  0  0  0  0
 13 14  1  0  0  0  0
 13 95  1  0  0  0  0
 14 15  1  0  0  0  0
 14 96  1  0  0  0  0
 15 16  1  0  0  0  0
 15 97  1  0  0  0  0
 16 17  1  0  0  0  0
 16 98  1  0  0  0  0
 17 18  1  0  0  0  0
 17 99  1  0  0  0  0
 18 19  1  0  0  0  0
 18100  1  0  0  0  0
 19 20  1  0  0  0  0
 19101  1  0  0  0  0
 20 21  1  0  0  0  0
 20102  1  0  0  0  0
 21 22  1  0  0  0  0
 21103  1  0  0  0  0
 22 23  1  0  0  0  0
 22104  1  0  0  0  0
 23 24  1  0  0  0  0
 23105  1  0  0  0  0
 24 25  1  0  0  0  0
 24106  1  0  0  0  0
 25 26  1  0  0  0  0
 25107  1  0  0  0  0
 26 27  1  0  0  0  0
 26108  1  0  0  0  0
 27 28  1  0  0  0  0
 27109  1  0  0  0  0
 28 29  1  0  0  0  0
 28110  1  0  0  0  0
 29 30  1  0  0  0  0
 29111  1  0  0  0  0
 30 31  1  0  0  0  0
 30112  1  0  0  0  0
 31 32  1  0  0  0  0
 31113  1  0  0  0  0
 32 33  1  0  0  0  0
 32114  1  0  0  0  0
 33 34  1  0  0  0  0
 33115  1  0  0  0  0
 34 35  1  0  0  0  0
 34116  1  0  0  0  0
 35 36  1  0  0  0  0
 35117  1  0  0  0  0
 36 37  1  0  0  0  0
 36118  1  0  0  0  0
 37 38  1  0  0  0  0
 37119  1  0  0  0  0
 38 39  1  0  0  0  0
 38120  1  0  0  0  0
 39 40  1  0  0  0  0
 39121  1  0  0  0  0
 40 41  1  0  0  0  0
 40122  1  0  0  0  0
 41 42  1  0  0  0  0
 41123  1  0  0  0  0
 42 43  1  0  0  0  0
 42124  1  0  0  0  0
 43 44  1  0  0  0  0
 43125  1  0  0  0  0
 44 45  1  0  0  0  0
 44126  1  0  0  0  0
 45 46  1  0  0  0  0
 45127  1  0  0  0  0
 46 47  1  0  0  0  0
 46128  1  0  0  0  0
 47 48  1  0  0  0  0
 47129  1  0  0  0  0
 48 49  1  0  0  0  0
 48130  1  0  0  0  0
 49 50  1  0  0  0  0
 49131  1  0  0  0  0
 50 51  1  0  0  0  0
 50132  1  0  0  0  0
 51 52  1  0  0  0  0
 51133  1  0  0  0  0
 52 53  1  0  0  0  0
 52134  1  0  0  0  0
 53 54  1  0  0  0  0
 53135  1  0  0  0  0
 54 55  1  0  0  0  0
 54136  1  0  0  0  0
 55 56  1  0  0  0  0
 55137  1  0  0  0  0
 56 57  1  0  0  0  0
 56138  1  0  0  0  0
 57 58  1  0  0  0  0
 57139  1  0  0  0  0
 58 59  1  0  0  0  0
 58140  1  0  0  0  0
 59 60  1  0  0  0  0
 59141  1  0  0  0  0
 60 61  1  0  0  0  0
 60142  1  0  0  0  0
 61 62  1  0  0  0  0
 61143  1  0  0  0  0
 62 63  1  0  0  0  0
 62144  1  0  0  0  0
 63 64  1  0  0  0  0
 63145  1  0  0  0  0
 64 65  1  0  0  0  0
 64146  1  0  0  0  0
 65 66  1  0  0  0  0
 65147  1  0  0  0  0
 66 67  1  0  0  0  0
 66148  1  0  0  0  0
 67 68  1  0  0  0  0
 67149  1  0  0  0  0
 68 69  1  0  0  0  0
 68150  1  0  0  0  0
 69 70  1  0  0  0  0
 69151  1  0  0  0  0
 70 71  1  0  0  0  0
 70152  1  0  0  0  0
 71 72  1  0  0  0  0
 71153  1  0  0  0  0
 72 73  1  0  0  0  0
 72154  1  0  0  0  0
 73 74  1  0  0  0  0
 73155  1  0  0  0  0
 74 75  1  0  0  0  0
 74156  1  0  0  0  0
 75 76  1  0  0  0  0
 75157  1  0  0  0  0
 76 77  1  0  0  0  0
 76158  1  0  0  0  0
 77 78  1  0  0  0  0
 77159  1  0  0  0  0
 78 79  1  0  0  0  0
 78160  1  0  0  0  0
 79 80  1  0  0  0  0
 79161  1  0  0  0  0
 80162  1  0  0  0  0
 80163  1  0  0  0  0
M  END
$$$$
