
 OpenBabel04232216403D

 51 53  0  0  0  0  0  0  0  0999 V2000
   17.9032    3.0112   -4.6861 C   0  0  0  0  0  0  0  0  0  0  0  0
   17.2774    3.5676   -3.6293 C   0  0  0  0  0  0  0  0  0  0  0  0
   15.8460    3.9378   -3.3840 C   0  0  0  0  0  0  0  0  0  0  0  0
   14.7518    3.3542   -4.2374 N   0  0  0  0  0  0  0  0  0  0  0  0
   14.1741    2.0937   -3.8441 C   0  0  0  0  0  0  0  0  0  0  0  0
   15.1450    0.9653   -3.5392 C   0  0  0  0  0  0  0  0  0  0  0  0
   12.8381    1.8431   -3.6476 C   0  0  0  0  0  0  0  0  0  0  0  0
   12.2567    0.6021   -3.0093 C   0  0  0  0  0  0  0  0  0  0  0  0
   10.8864    0.7798   -2.3615 C   0  0  0  0  0  0  0  0  0  0  0  0
   10.7463    1.7787   -1.2046 C   0  0  0  0  0  0  0  0  0  0  0  0
   11.2719    2.9218   -0.8201 N   0  0  0  0  0  0  0  0  0  0  0  0
   12.2373    3.8375   -1.3632 N   0  0  0  0  0  0  0  0  0  0  0  0
   12.3842    3.9960   -2.6488 C   0  0  0  0  0  0  0  0  0  0  0  0
   13.0933    5.0584   -3.4904 C   0  0  0  0  0  0  0  0  0  0  0  0
   13.8795    4.3884   -4.6993 C   0  0  0  0  0  0  0  0  0  0  0  0
   13.8658    4.6243   -6.0119 N   0  0  0  0  0  0  0  0  0  0  0  0
   13.0501    5.5966   -6.6358 N   0  0  0  0  0  0  0  0  0  0  0  0
   13.2885    5.5634   -7.8923 N   0  0  0  0  0  0  0  0  0  0  0  0
   11.8628    2.9614   -3.5162 C   0  0  0  0  0  0  0  0  0  0  0  0
   10.6609    3.2177   -3.8536 N   0  0  0  0  0  0  0  0  0  0  0  0
   10.3416    2.8661   -5.0992 C   0  0  0  0  0  0  0  0  0  0  0  0
    9.9447    3.9266   -5.8415 C   0  0  0  0  0  0  0  0  0  0  0  0
   10.0363    3.8593   -7.2407 C   0  0  0  0  0  0  0  0  0  0  0  0
    9.4767    4.7713   -8.0481 C   0  0  0  0  0  0  0  0  0  0  0  0
    9.9063    4.7604   -9.4345 C   0  0  0  0  0  0  0  0  0  0  0  0
   10.4327    5.9225   -9.9124 C   0  0  0  0  0  0  0  0  0  0  0  0
   11.9047    5.8734   -9.8600 C   0  0  0  0  0  0  0  0  0  0  0  0
   12.4619    6.3176   -8.7059 C   0  0  0  0  0  0  0  0  0  0  0  0
   18.9885    2.8771   -4.6357 H   0  0  0  0  0  0  0  0  0  0  0  0
   17.3962    2.7132   -5.5798 H   0  0  0  0  0  0  0  0  0  0  0  0
   17.9212    3.8556   -2.7978 H   0  0  0  0  0  0  0  0  0  0  0  0
   15.8376    5.0321   -3.4781 H   0  0  0  0  0  0  0  0  0  0  0  0
   15.6118    3.7182   -2.3360 H   0  0  0  0  0  0  0  0  0  0  0  0
   16.1483    1.3118   -3.3014 H   0  0  0  0  0  0  0  0  0  0  0  0
   15.2108    0.2787   -4.3867 H   0  0  0  0  0  0  0  0  0  0  0  0
   14.8533    0.3961   -2.6510 H   0  0  0  0  0  0  0  0  0  0  0  0
   12.9037    0.2465   -2.2059 H   0  0  0  0  0  0  0  0  0  0  0  0
   12.1958   -0.1912   -3.7627 H   0  0  0  0  0  0  0  0  0  0  0  0
   10.5929   -0.1904   -1.9534 H   0  0  0  0  0  0  0  0  0  0  0  0
   10.0997    0.9717   -3.0997 H   0  0  0  0  0  0  0  0  0  0  0  0
    9.9162    1.4687   -0.5281 H   0  0  0  0  0  0  0  0  0  0  0  0
   13.8163    5.5802   -2.8364 H   0  0  0  0  0  0  0  0  0  0  0  0
   12.3762    5.7946   -3.8570 H   0  0  0  0  0  0  0  0  0  0  0  0
   10.5986    1.9095   -5.5154 H   0  0  0  0  0  0  0  0  0  0  0  0
    9.7843    4.8818   -5.3427 H   0  0  0  0  0  0  0  0  0  0  0  0
   10.7586    3.1281   -7.6172 H   0  0  0  0  0  0  0  0  0  0  0  0
    8.9014    5.5897   -7.6377 H   0  0  0  0  0  0  0  0  0  0  0  0
   10.4476    3.8470   -9.6720 H   0  0  0  0  0  0  0  0  0  0  0  0
    9.9746    6.8720   -9.6142 H   0  0  0  0  0  0  0  0  0  0  0  0
   12.3167    5.0082  -10.3965 H   0  0  0  0  0  0  0  0  0  0  0  0
   12.0311    7.2050   -8.2438 H   0  0  0  0  0  0  0  0  0  0  0  0
  1  2  2  0  0  0  0
  1 29  1  0  0  0  0
  1 30  1  0  0  0  0
  2  3  1  0  0  0  0
  2 31  1  0  0  0  0
  3  4  1  0  0  0  0
  3 32  1  0  0  0  0
  3 33  1  0  0  0  0
  4  5  1  0  0  0  0
  4 15  1  0  0  0  0
  5  6  1  0  0  0  0
  5  7  2  0  0  0  0
  6 34  1  0  0  0  0
  6 35  1  0  0  0  0
  6 36  1  0  0  0  0
  7  8  1  0  0  0  0
  7 19  1  0  0  0  0
  8  9  1  0  0  0  0
  8 37  1  0  0  0  0
  8 38  1  0  0  0  0
  9 10  1  0  0  0  0
  9 39  1  0  0  0  0
  9 40  1  0  0  0  0
 10 11  2  0  0  0  0
 10 41  1  0  0  0  0
 11 12  1  0  0  0  0
 12 13  2  0  0  0  0
 13 14  1  0  0  0  0
 13 19  1  0  0  0  0
 14 15  1  0  0  0  0
 14 42  1  0  0  0  0
 14 43  1  0  0  0  0
 15 16  2  3  0  0  0
 16 17  1  0  0  0  0
 17 18  2  3  0  0  0
 18 28  1  0  0  0  0
 19 20  2  3  0  0  0
 20 21  1  0  0  0  0
 21 22  2  3  0  0  0
 21 44  1  0  0  0  0
 22 23  1  0  0  0  0
 22 45  1  0  0  0  0
 23 24  2  3  0  0  0
 23 46  1  0  0  0  0
 24 25  1  0  0  0  0
 24 47  1  0  0  0  0
 25 26  2  3  0  0  0
 25 48  1  0  0  0  0
 26 27  1  0  0  0  0
 26 49  1  0  0  0  0
 27 28  2  3  0  0  0
 27 50  1  0  0  0  0
 28 51  1  0  0  0  0
M  END
$$$$
