
 OpenBabel04232216503D

 46 48  0  0  0  0  0  0  0  0999 V2000
    2.2323    3.3195    2.4731 C   0  0  0  0  0  0  0  0  0  0  0  0
    3.5768    2.8747    2.0463 C   0  0  0  0  0  0  0  0  0  0  0  0
    3.7971    2.0417    1.1259 N   0  0  0  0  0  0  0  0  0  0  0  0
    5.2116    1.9699    1.4457 C   0  0  0  0  0  0  0  0  0  0  0  0
    5.8979    0.9399    0.7610 C   0  0  0  0  0  0  0  0  0  0  0  0
    4.7389    0.0058    0.0091 C   0  0  0  0  0  0  0  0  0  0  0  0
    4.6444   -1.3810    0.3708 O   0  0  0  0  0  0  0  0  0  0  0  0
    4.1237   -1.6921    1.6462 C   0  0  0  0  0  0  0  0  0  0  0  0
    7.3743    0.1885    0.4546 C   0  0  0  0  0  0  0  0  0  0  0  0
    7.2806   -1.0858   -0.4009 C   0  0  0  0  0  0  0  0  0  0  0  0
    7.9254   -1.6934   -1.4150 C   0  0  0  0  0  0  0  0  0  0  0  0
    9.0267   -1.3050   -2.2578 C   0  0  0  0  0  0  0  0  0  0  0  0
   10.2148   -0.8953   -1.8007 C   0  0  0  0  0  0  0  0  0  0  0  0
   10.5256   -1.0360   -0.4056 C   0  0  0  0  0  0  0  0  0  0  0  0
    9.7761   -0.6901    0.6620 C   0  0  0  0  0  0  0  0  0  0  0  0
    8.6977    0.3612    0.8571 C   0  0  0  0  0  0  0  0  0  0  0  0
    9.4356    1.4579    1.4645 C   0  0  0  0  0  0  0  0  0  0  0  0
    9.1779    2.5522    2.1440 C   0  0  0  0  0  0  0  0  0  0  0  0
    7.9615    2.7506    2.7878 C   0  0  0  0  0  0  0  0  0  0  0  0
    7.7505    3.9064    3.3810 C   0  0  0  0  0  0  0  0  0  0  0  0
    6.4878    4.1994    3.9014 C   0  0  0  0  0  0  0  0  0  0  0  0
    5.3235    3.9560    3.2941 C   0  0  0  0  0  0  0  0  0  0  0  0
    4.3647    5.0499    3.7721 C   0  0  0  0  0  0  0  0  0  0  0  0
    4.9058    3.0671    2.2746 N   0  0  0  0  0  0  0  0  0  0  0  0
    1.4989    2.6344    2.0329 H   0  0  0  0  0  0  0  0  0  0  0  0
    1.9986    4.3204    2.0973 H   0  0  0  0  0  0  0  0  0  0  0  0
    2.1043    3.2751    3.5590 H   0  0  0  0  0  0  0  0  0  0  0  0
    4.9560    0.0732   -1.0618 H   0  0  0  0  0  0  0  0  0  0  0  0
    3.7098    0.3420    0.0768 H   0  0  0  0  0  0  0  0  0  0  0  0
    4.0443   -2.7852    1.6948 H   0  0  0  0  0  0  0  0  0  0  0  0
    3.1228   -1.2772    1.7826 H   0  0  0  0  0  0  0  0  0  0  0  0
    4.8006   -1.3751    2.4433 H   0  0  0  0  0  0  0  0  0  0  0  0
    6.5146   -1.7516   -0.0565 H   0  0  0  0  0  0  0  0  0  0  0  0
    7.6173   -2.7232   -1.6069 H   0  0  0  0  0  0  0  0  0  0  0  0
    8.9222   -1.5424   -3.3164 H   0  0  0  0  0  0  0  0  0  0  0  0
   11.0365   -0.7466   -2.5018 H   0  0  0  0  0  0  0  0  0  0  0  0
   11.4351   -1.5949   -0.2316 H   0  0  0  0  0  0  0  0  0  0  0  0
   10.1778   -1.0253    1.6209 H   0  0  0  0  0  0  0  0  0  0  0  0
   10.5216    1.3057    1.4568 H   0  0  0  0  0  0  0  0  0  0  0  0
    9.9857    3.2507    2.3409 H   0  0  0  0  0  0  0  0  0  0  0  0
    7.2488    1.9423    2.8435 H   0  0  0  0  0  0  0  0  0  0  0  0
    8.4903    4.7043    3.3975 H   0  0  0  0  0  0  0  0  0  0  0  0
    6.5668    4.8857    4.7543 H   0  0  0  0  0  0  0  0  0  0  0  0
    4.9139    5.9687    4.0896 H   0  0  0  0  0  0  0  0  0  0  0  0
    3.7538    4.7624    4.6357 H   0  0  0  0  0  0  0  0  0  0  0  0
    3.7424    5.4351    2.9609 H   0  0  0  0  0  0  0  0  0  0  0  0
  1  2  1  0  0  0  0
  1 25  1  0  0  0  0
  1 26  1  0  0  0  0
  1 27  1  0  0  0  0
  2  3  2  0  0  0  0
  2 24  1  0  0  0  0
  3  4  1  0  0  0  0
  4  5  2  0  0  0  0
  4 24  1  0  0  0  0
  5  6  1  0  0  0  0
  5  9  1  0  0  0  0
  6  7  1  0  0  0  0
  6 28  1  0  0  0  0
  6 29  1  0  0  0  0
  7  8  1  0  0  0  0
  8 30  1  0  0  0  0
  8 31  1  0  0  0  0
  8 32  1  0  0  0  0
  9 10  1  0  0  0  0
  9 16  2  0  0  0  0
 10 11  2  0  0  0  0
 10 33  1  0  0  0  0
 11 12  1  0  0  0  0
 11 34  1  0  0  0  0
 12 13  2  0  0  0  0
 12 35  1  0  0  0  0
 13 14  1  0  0  0  0
 13 36  1  0  0  0  0
 14 15  2  0  0  0  0
 14 37  1  0  0  0  0
 15 16  1  0  0  0  0
 15 38  1  0  0  0  0
 16 17  1  0  0  0  0
 17 18  2  0  0  0  0
 17 39  1  0  0  0  0
 18 19  1  0  0  0  0
 18 40  1  0  0  0  0
 19 20  2  0  0  0  0
 19 41  1  0  0  0  0
 20 21  1  0  0  0  0
 20 42  1  0  0  0  0
 21 22  2  0  0  0  0
 21 43  1  0  0  0  0
 22 23  1  0  0  0  0
 22 24  1  0  0  0  0
 23 44  1  0  0  0  0
 23 45  1  0  0  0  0
 23 46  1  0  0  0  0
M  END
$$$$
