
 OpenBabel04232216433D

 23 23  0  0  0  0  0  0  0  0999 V2000
    0.2231   -1.2326    0.0187 C   0  0  0  0  0  0  0  0  0  0  0  0
   -1.1665   -1.1805    0.0229 C   0  0  0  0  0  0  0  0  0  0  0  0
   -1.7989    0.0517    0.0083 C   0  0  0  0  0  0  0  0  0  0  0  0
   -1.0393    1.2238   -0.0354 C   0  0  0  0  0  0  0  0  0  0  0  0
    0.3669    1.2029   -0.0947 C   0  0  0  0  0  0  0  0  0  0  0  0
    1.1060    2.4035   -0.0925 N   0  0  0  0  0  0  0  0  0  0  0  0
    0.5313    3.5520   -0.7931 C   0  0  0  0  0  0  0  0  0  0  0  0
    1.4947    4.7290   -0.7497 C   0  0  0  0  0  0  0  0  0  0  0  0
    1.0028   -0.0565   -0.0155 C   0  0  0  0  0  0  0  0  0  0  0  0
    2.4965   -0.2587   -0.0064 C   0  0  0  0  0  0  0  0  0  0  0  0
    0.7103   -2.2060    0.0496 H   0  0  0  0  0  0  0  0  0  0  0  0
   -1.7502   -2.0954    0.0556 H   0  0  0  0  0  0  0  0  0  0  0  0
   -2.8857    0.1109    0.0394 H   0  0  0  0  0  0  0  0  0  0  0  0
   -1.5830    2.1626   -0.0058 H   0  0  0  0  0  0  0  0  0  0  0  0
    2.0673    2.2483   -0.3802 H   0  0  0  0  0  0  0  0  0  0  0  0
   -0.4034    3.8768   -0.3254 H   0  0  0  0  0  0  0  0  0  0  0  0
    0.3304    3.2910   -1.8389 H   0  0  0  0  0  0  0  0  0  0  0  0
    1.7120    5.0190    0.2837 H   0  0  0  0  0  0  0  0  0  0  0  0
    1.0579    5.5921   -1.2625 H   0  0  0  0  0  0  0  0  0  0  0  0
    2.4426    4.4829   -1.2392 H   0  0  0  0  0  0  0  0  0  0  0  0
    3.0694    0.6626    0.1092 H   0  0  0  0  0  0  0  0  0  0  0  0
    2.8083   -0.7367   -0.9414 H   0  0  0  0  0  0  0  0  0  0  0  0
    2.7769   -0.9077    0.8305 H   0  0  0  0  0  0  0  0  0  0  0  0
  1  2  1  0  0  0  0
  1  9  2  0  0  0  0
  1 11  1  0  0  0  0
  2  3  2  0  0  0  0
  2 12  1  0  0  0  0
  3  4  1  0  0  0  0
  3 13  1  0  0  0  0
  4  5  2  0  0  0  0
  4 14  1  0  0  0  0
  5  6  1  0  0  0  0
  5  9  1  0  0  0  0
  6  7  1  0  0  0  0
  6 15  1  0  0  0  0
  7  8  1  0  0  0  0
  7 16  1  0  0  0  0
  7 17  1  0  0  0  0
  8 18  1  0  0  0  0
  8 19  1  0  0  0  0
  8 20  1  0  0  0  0
  9 10  1  0  0  0  0
 10 21  1  0  0  0  0
 10 22  1  0  0  0  0
 10 23  1  0  0  0  0
M  END
$$$$
