
 OpenBabel04232216453D

 70 70  0  0  0  0  0  0  0  0999 V2000
    4.1094    2.1450   -0.9548 C   0  0  0  0  0  0  0  0  0  0  0  0
    5.2495    2.3491    0.1240 C   0  0  0  0  0  0  0  0  0  0  0  0
    4.5128    1.9229    1.2956 C   0  0  0  0  0  0  0  0  0  0  0  0
    4.4872    0.6212    1.6759 C   0  0  0  0  0  0  0  0  0  0  0  0
    4.5355   -0.5963    0.7750 C   0  0  0  0  0  0  0  0  0  0  0  0
    5.1883    0.4779    2.9897 C   0  0  0  0  0  0  0  0  0  0  0  0
    6.6925    0.5294    2.7153 C   0  0  0  0  0  0  0  0  0  0  0  0
    7.4375   -0.0426    1.4484 C   0  0  0  0  0  0  0  0  0  0  0  0
    8.5107   -1.0594    1.5785 C   0  0  0  0  0  0  0  0  0  0  0  0
    9.9104   -0.5105    1.8866 C   0  0  0  0  0  0  0  0  0  0  0  0
   10.9129   -1.6499    1.9910 C   0  0  0  0  0  0  0  0  0  0  0  0
   12.2758   -1.2104    2.4922 C   0  0  0  0  0  0  0  0  0  0  0  0
   13.1815   -2.4176    2.6496 C   0  0  0  0  0  0  0  0  0  0  0  0
    7.0951    1.7066    3.2490 C   0  0  0  0  0  0  0  0  0  0  0  0
    7.9464    2.4915    2.5045 C   0  0  0  0  0  0  0  0  0  0  0  0
    7.8713    2.9590    1.2498 C   0  0  0  0  0  0  0  0  0  0  0  0
    9.4887    3.3277    1.0991 C   0  0  0  0  0  0  0  0  0  0  0  0
   10.8051    2.7673    2.2341 C   0  0  0  0  0  0  0  0  0  0  0  0
   11.2036    2.8393    3.8668 C   0  0  0  0  0  0  0  0  0  0  0  0
   10.8115    2.0430    5.2201 C   0  0  0  0  0  0  0  0  0  0  0  0
   10.9465    0.5132    5.5679 C   0  0  0  0  0  0  0  0  0  0  0  0
   12.3202   -0.1471    5.9393 C   0  0  0  0  0  0  0  0  0  0  0  0
   12.2065   -1.7091    6.0927 C   0  0  0  0  0  0  0  0  0  0  0  0
   13.5582   -2.4522    6.1852 C   0  0  0  0  0  0  0  0  0  0  0  0
   13.4146   -3.9784    6.1380 C   0  0  0  0  0  0  0  0  0  0  0  0
    6.6109    2.7464    0.1289 C   0  0  0  0  0  0  0  0  0  0  0  0
    3.2368    2.7987   -0.7451 H   0  0  0  0  0  0  0  0  0  0  0  0
    3.6343    1.1433   -0.8708 H   0  0  0  0  0  0  0  0  0  0  0  0
    4.3575    2.2302   -2.0098 H   0  0  0  0  0  0  0  0  0  0  0  0
    4.2246    2.7278    1.9687 H   0  0  0  0  0  0  0  0  0  0  0  0
    3.5369   -0.9652    0.5411 H   0  0  0  0  0  0  0  0  0  0  0  0
    5.0745   -1.4340    1.2411 H   0  0  0  0  0  0  0  0  0  0  0  0
    5.0218   -0.3825   -0.1829 H   0  0  0  0  0  0  0  0  0  0  0  0
    4.8854   -0.2955    3.6796 H   0  0  0  0  0  0  0  0  0  0  0  0
    4.8818    1.3962    3.5356 H   0  0  0  0  0  0  0  0  0  0  0  0
    7.8786    0.7175    0.8024 H   0  0  0  0  0  0  0  0  0  0  0  0
    6.7507   -0.4890    0.7501 H   0  0  0  0  0  0  0  0  0  0  0  0
    8.6457   -1.5527    0.5677 H   0  0  0  0  0  0  0  0  0  0  0  0
    8.2468   -1.8646    2.2604 H   0  0  0  0  0  0  0  0  0  0  0  0
    9.8577    0.0569    2.8165 H   0  0  0  0  0  0  0  0  0  0  0  0
   10.2287    0.1657    1.0837 H   0  0  0  0  0  0  0  0  0  0  0  0
   11.0316   -2.1172    1.0056 H   0  0  0  0  0  0  0  0  0  0  0  0
   10.5159   -2.4101    2.6682 H   0  0  0  0  0  0  0  0  0  0  0  0
   12.1814   -0.6771    3.4364 H   0  0  0  0  0  0  0  0  0  0  0  0
   12.7271   -0.5115    1.7917 H   0  0  0  0  0  0  0  0  0  0  0  0
   12.7039   -3.1674    3.2802 H   0  0  0  0  0  0  0  0  0  0  0  0
   14.1352   -2.1346    3.1016 H   0  0  0  0  0  0  0  0  0  0  0  0
   13.3849   -2.8790    1.6785 H   0  0  0  0  0  0  0  0  0  0  0  0
    6.5738    2.2309    4.0822 H   0  0  0  0  0  0  0  0  0  0  0  0
    8.7760    2.7612    3.1432 H   0  0  0  0  0  0  0  0  0  0  0  0
    9.6018    4.4202    1.0541 H   0  0  0  0  0  0  0  0  0  0  0  0
    9.8358    2.9276    0.1287 H   0  0  0  0  0  0  0  0  0  0  0  0
   11.6378    3.3758    1.8314 H   0  0  0  0  0  0  0  0  0  0  0  0
   11.0717    1.7592    1.9323 H   0  0  0  0  0  0  0  0  0  0  0  0
   11.1212    3.9008    4.1481 H   0  0  0  0  0  0  0  0  0  0  0  0
   12.2933    2.6560    3.8506 H   0  0  0  0  0  0  0  0  0  0  0  0
    9.7843    2.3281    5.4793 H   0  0  0  0  0  0  0  0  0  0  0  0
   11.4199    2.5196    6.0126 H   0  0  0  0  0  0  0  0  0  0  0  0
   10.4427   -0.0777    4.8063 H   0  0  0  0  0  0  0  0  0  0  0  0
   10.3466    0.3597    6.4861 H   0  0  0  0  0  0  0  0  0  0  0  0
   12.6951    0.2461    6.8910 H   0  0  0  0  0  0  0  0  0  0  0  0
   13.0740    0.0906    5.1826 H   0  0  0  0  0  0  0  0  0  0  0  0
   11.6448   -2.1185    5.2462 H   0  0  0  0  0  0  0  0  0  0  0  0
   11.6223   -1.9502    6.9903 H   0  0  0  0  0  0  0  0  0  0  0  0
   14.0755   -2.1844    7.1127 H   0  0  0  0  0  0  0  0  0  0  0  0
   14.2108   -2.1488    5.3614 H   0  0  0  0  0  0  0  0  0  0  0  0
   12.8546   -4.3588    6.9981 H   0  0  0  0  0  0  0  0  0  0  0  0
   14.4016   -4.4583    6.1473 H   0  0  0  0  0  0  0  0  0  0  0  0
   12.9037   -4.3147    5.2299 H   0  0  0  0  0  0  0  0  0  0  0  0
    7.0102    2.9407   -0.8736 H   0  0  0  0  0  0  0  0  0  0  0  0
  1  2  1  0  0  0  0
  1 27  1  0  0  0  0
  1 28  1  0  0  0  0
  1 29  1  0  0  0  0
  2  3  1  0  0  0  0
  2 26  2  3  0  0  0
  3  4  2  3  0  0  0
  3 30  1  0  0  0  0
  4  5  1  0  0  0  0
  4  6  1  0  0  0  0
  5 31  1  0  0  0  0
  5 32  1  0  0  0  0
  5 33  1  0  0  0  0
  6  7  1  0  0  0  0
  6 34  1  0  0  0  0
  6 35  1  0  0  0  0
  7  8  1  0  0  0  0
  7 14  2  3  0  0  0
  8  9  1  0  0  0  0
  8 36  1  0  0  0  0
  8 37  1  0  0  0  0
  9 10  1  0  0  0  0
  9 38  1  0  0  0  0
  9 39  1  0  0  0  0
 10 11  1  0  0  0  0
 10 40  1  0  0  0  0
 10 41  1  0  0  0  0
 11 12  1  0  0  0  0
 11 42  1  0  0  0  0
 11 43  1  0  0  0  0
 12 13  1  0  0  0  0
 12 44  1  0  0  0  0
 12 45  1  0  0  0  0
 13 46  1  0  0  0  0
 13 47  1  0  0  0  0
 13 48  1  0  0  0  0
 14 15  1  0  0  0  0
 14 49  1  0  0  0  0
 15 16  2  3  0  0  0
 15 50  1  0  0  0  0
 16 17  1  0  0  0  0
 16 26  1  0  0  0  0
 17 18  1  0  0  0  0
 17 51  1  0  0  0  0
 17 52  1  0  0  0  0
 18 19  1  0  0  0  0
 18 53  1  0  0  0  0
 18 54  1  0  0  0  0
 19 20  1  0  0  0  0
 19 55  1  0  0  0  0
 19 56  1  0  0  0  0
 20 21  1  0  0  0  0
 20 57  1  0  0  0  0
 20 58  1  0  0  0  0
 21 22  1  0  0  0  0
 21 59  1  0  0  0  0
 21 60  1  0  0  0  0
 22 23  1  0  0  0  0
 22 61  1  0  0  0  0
 22 62  1  0  0  0  0
 23 24  1  0  0  0  0
 23 63  1  0  0  0  0
 23 64  1  0  0  0  0
 24 25  1  0  0  0  0
 24 65  1  0  0  0  0
 24 66  1  0  0  0  0
 25 67  1  0  0  0  0
 25 68  1  0  0  0  0
 25 69  1  0  0  0  0
 26 70  1  0  0  0  0
M  END
$$$$
