
 OpenBabel04232216563D

234234  0  0  0  0  0  0  0  0999 V2000
    2.8681    3.4240    1.3623 C   0  0  0  0  0  0  0  0  0  0  0  0
    2.4217    2.3355    0.5358 N   0  0  0  0  0  0  0  0  0  0  0  0
    1.1687    1.7709    0.4588 C   0  0  0  0  0  0  0  0  0  0  0  0
    1.1052    0.4967    0.0466 C   0  0  0  0  0  0  0  0  0  0  0  0
    2.4295   -0.1946   -0.1830 C   0  0  0  0  0  0  0  0  0  0  0  0
    3.5189    1.2086   -0.0929 S   0  0  3  0  0  0  0  0  0  0  0  0
    3.8120    1.7047   -1.7594 C   0  0  0  0  0  0  0  0  0  0  0  0
    4.7343    2.9066   -1.8023 C   0  0  0  0  0  0  0  0  0  0  0  0
    4.9877    3.3437   -3.2332 C   0  0  0  0  0  0  0  0  0  0  0  0
    5.9155    4.5468   -3.2410 C   0  0  0  0  0  0  0  0  0  0  0  0
    6.1805    4.9896   -4.6673 C   0  0  0  0  0  0  0  0  0  0  0  0
    7.1077    6.1900   -4.6708 C   0  0  0  0  0  0  0  0  0  0  0  0
    7.3725    6.6305   -6.0984 C   0  0  0  0  0  0  0  0  0  0  0  0
    8.2993    7.8308   -6.1024 C   0  0  0  0  0  0  0  0  0  0  0  0
    8.5644    8.2713   -7.5290 C   0  0  0  0  0  0  0  0  0  0  0  0
    9.4912    9.4716   -7.5336 C   0  0  0  0  0  0  0  0  0  0  0  0
    9.7561    9.9115   -8.9605 C   0  0  0  0  0  0  0  0  0  0  0  0
   10.6828   11.1121   -8.9655 C   0  0  0  0  0  0  0  0  0  0  0  0
   10.9461   11.5530  -10.3926 C   0  0  0  0  0  0  0  0  0  0  0  0
   11.8727   12.7536  -10.3976 C   0  0  0  0  0  0  0  0  0  0  0  0
   12.1360   13.1945  -11.8246 C   0  0  0  0  0  0  0  0  0  0  0  0
   13.0627   14.3951  -11.8295 C   0  0  0  0  0  0  0  0  0  0  0  0
   13.3259   14.8361  -13.2565 C   0  0  0  0  0  0  0  0  0  0  0  0
   14.2526   16.0367  -13.2614 C   0  0  0  0  0  0  0  0  0  0  0  0
   14.5159   16.4776  -14.6885 C   0  0  0  0  0  0  0  0  0  0  0  0
   15.4426   17.6782  -14.6934 C   0  0  0  0  0  0  0  0  0  0  0  0
   15.7059   18.1192  -16.1204 C   0  0  0  0  0  0  0  0  0  0  0  0
   16.6326   19.3198  -16.1253 C   0  0  0  0  0  0  0  0  0  0  0  0
   16.8943   19.7620  -17.5522 C   0  0  0  0  0  0  0  0  0  0  0  0
   17.8210   20.9625  -17.5571 C   0  0  0  0  0  0  0  0  0  0  0  0
   18.0842   21.4035  -18.9841 C   0  0  0  0  0  0  0  0  0  0  0  0
   19.0109   22.6041  -18.9890 C   0  0  0  0  0  0  0  0  0  0  0  0
   19.2726   23.0463  -20.4160 C   0  0  0  0  0  0  0  0  0  0  0  0
   20.1993   24.2469  -20.4208 C   0  0  0  0  0  0  0  0  0  0  0  0
   20.4625   24.6879  -21.8479 C   0  0  0  0  0  0  0  0  0  0  0  0
   21.3908   25.8872  -21.8528 C   0  0  0  0  0  0  0  0  0  0  0  0
   21.6525   26.3294  -23.2798 C   0  0  0  0  0  0  0  0  0  0  0  0
   22.5808   27.5287  -23.2848 C   0  0  0  0  0  0  0  0  0  0  0  0
   22.8424   27.9709  -24.7117 C   0  0  0  0  0  0  0  0  0  0  0  0
   23.7707   29.1703  -24.7167 C   0  0  0  0  0  0  0  0  0  0  0  0
   24.0324   29.6125  -26.1436 C   0  0  0  0  0  0  0  0  0  0  0  0
   24.9607   30.8118  -26.1486 C   0  0  0  0  0  0  0  0  0  0  0  0
   25.2223   31.2540  -27.5755 C   0  0  0  0  0  0  0  0  0  0  0  0
   26.1522   32.4521  -27.5806 C   0  0  0  0  0  0  0  0  0  0  0  0
   26.4155   32.8931  -29.0076 C   0  0  0  0  0  0  0  0  0  0  0  0
   27.3438   34.0924  -29.0126 C   0  0  0  0  0  0  0  0  0  0  0  0
   27.6086   34.5322  -30.4397 C   0  0  0  0  0  0  0  0  0  0  0  0
   28.5353   35.7327  -30.4446 C   0  0  0  0  0  0  0  0  0  0  0  0
   28.8002   36.1725  -31.8717 C   0  0  0  0  0  0  0  0  0  0  0  0
   29.7269   37.3731  -31.8766 C   0  0  0  0  0  0  0  0  0  0  0  0
   29.9917   37.8128  -33.3037 C   0  0  0  0  0  0  0  0  0  0  0  0
   30.9169   39.0146  -33.3085 C   0  0  0  0  0  0  0  0  0  0  0  0
   31.1817   39.4543  -34.7357 C   0  0  0  0  0  0  0  0  0  0  0  0
   32.1084   40.6549  -34.7405 C   0  0  0  0  0  0  0  0  0  0  0  0
   32.3733   41.0946  -36.1677 C   0  0  0  0  0  0  0  0  0  0  0  0
   33.2984   42.2964  -36.1725 C   0  0  0  0  0  0  0  0  0  0  0  0
   33.5632   42.7362  -37.5996 C   0  0  0  0  0  0  0  0  0  0  0  0
   34.4867   43.9392  -37.6043 C   0  0  0  0  0  0  0  0  0  0  0  0
   34.7499   44.3802  -39.0314 C   0  0  0  0  0  0  0  0  0  0  0  0
   35.6719   45.5844  -39.0360 C   0  0  0  0  0  0  0  0  0  0  0  0
   35.9335   46.0266  -40.4629 C   0  0  0  0  0  0  0  0  0  0  0  0
   36.8570   47.2297  -40.4677 C   0  0  0  0  0  0  0  0  0  0  0  0
   37.1202   47.6706  -41.8947 C   0  0  0  0  0  0  0  0  0  0  0  0
   38.0453   48.8724  -41.8996 C   0  0  0  0  0  0  0  0  0  0  0  0
   38.3102   49.3121  -43.3266 C   0  0  0  0  0  0  0  0  0  0  0  0
   39.2337   50.5151  -43.3312 C   0  0  0  0  0  0  0  0  0  0  0  0
   39.4983   50.9546  -44.7585 C   0  0  0  0  0  0  0  0  0  0  0  0
   40.4202   52.1589  -44.7628 C   0  0  0  0  0  0  0  0  0  0  0  0
   40.6861   52.5966  -46.1905 C   0  0  0  0  0  0  0  0  0  0  0  0
   41.6065   53.8022  -46.1940 C   0  0  0  0  0  0  0  0  0  0  0  0
   41.8741   54.2385  -47.6218 C   0  0  0  0  0  0  0  0  0  0  0  0
   42.7953   55.4447  -47.6258 C   0  0  0  0  0  0  0  0  0  0  0  0
   43.0665   55.8824  -49.0530 C   0  0  0  0  0  0  0  0  0  0  0  0
   43.9906   57.0872  -49.0568 C   0  0  0  0  0  0  0  0  0  0  0  0
   44.2642   57.5285  -50.4837 C   0  0  0  0  0  0  0  0  0  0  0  0
   45.1899   58.7347  -50.4915 C   0  0  0  0  0  0  0  0  0  0  0  0
   45.4633   59.1758  -51.9221 C   0  0  0  0  0  0  0  0  0  0  0  0
   46.3910   60.3820  -51.9450 C   0  0  0  0  0  0  0  0  0  0  0  0
   46.6607   60.8183  -53.3730 C   0  0  0  0  0  0  0  0  0  0  0  0
    2.0280    3.9787    1.7948 H   0  0  0  0  0  0  0  0  0  0  0  0
    3.4605    4.1252    0.7693 H   0  0  0  0  0  0  0  0  0  0  0  0
    3.4983    3.0572    2.1787 H   0  0  0  0  0  0  0  0  0  0  0  0
    0.3153    2.3964    0.7045 H   0  0  0  0  0  0  0  0  0  0  0  0
    0.1713   -0.0283   -0.1052 H   0  0  0  0  0  0  0  0  0  0  0  0
    2.5065   -0.6819   -1.1545 H   0  0  0  0  0  0  0  0  0  0  0  0
    2.6751   -0.8703    0.6344 H   0  0  0  0  0  0  0  0  0  0  0  0
    4.6640    1.0831    0.6040 H   0  0  0  0  0  0  0  0  0  0  0  0
    2.8383    1.9506   -2.2076 H   0  0  0  0  0  0  0  0  0  0  0  0
    4.2394    0.8574   -2.3045 H   0  0  0  0  0  0  0  0  0  0  0  0
    5.6870    2.6662   -1.3152 H   0  0  0  0  0  0  0  0  0  0  0  0
    4.2969    3.7386   -1.2416 H   0  0  0  0  0  0  0  0  0  0  0  0
    4.0402    3.5987   -3.7242 H   0  0  0  0  0  0  0  0  0  0  0  0
    5.4386    2.5217   -3.8010 H   0  0  0  0  0  0  0  0  0  0  0  0
    6.8617    4.2922   -2.7481 H   0  0  0  0  0  0  0  0  0  0  0  0
    5.4655    5.3699   -2.6720 H   0  0  0  0  0  0  0  0  0  0  0  0
    5.2351    5.2462   -5.1606 H   0  0  0  0  0  0  0  0  0  0  0  0
    6.6316    4.1673   -5.2362 H   0  0  0  0  0  0  0  0  0  0  0  0
    8.0532    5.9350   -4.1768 H   0  0  0  0  0  0  0  0  0  0  0  0
    6.6569    7.0134   -4.1030 H   0  0  0  0  0  0  0  0  0  0  0  0
    6.4272    6.8859   -6.5924 H   0  0  0  0  0  0  0  0  0  0  0  0
    7.8236    5.8073   -6.6660 H   0  0  0  0  0  0  0  0  0  0  0  0
    9.2447    7.5753   -5.6079 H   0  0  0  0  0  0  0  0  0  0  0  0
    7.8482    8.6539   -5.5344 H   0  0  0  0  0  0  0  0  0  0  0  0
    7.6189    8.5265   -8.0234 H   0  0  0  0  0  0  0  0  0  0  0  0
    9.0156    7.4480   -8.0968 H   0  0  0  0  0  0  0  0  0  0  0  0
   10.4366    9.2164   -7.0389 H   0  0  0  0  0  0  0  0  0  0  0  0
    9.0399   10.2949   -6.9658 H   0  0  0  0  0  0  0  0  0  0  0  0
    8.8107   10.1668   -9.4551 H   0  0  0  0  0  0  0  0  0  0  0  0
   10.2075    9.0884   -9.5282 H   0  0  0  0  0  0  0  0  0  0  0  0
   11.6289   10.8565   -8.4724 H   0  0  0  0  0  0  0  0  0  0  0  0
   10.2322   11.9349   -8.3968 H   0  0  0  0  0  0  0  0  0  0  0  0
   10.0000   11.8085  -10.8857 H   0  0  0  0  0  0  0  0  0  0  0  0
   11.3966   10.7302  -10.9613 H   0  0  0  0  0  0  0  0  0  0  0  0
   12.8187   12.4980   -9.9044 H   0  0  0  0  0  0  0  0  0  0  0  0
   11.4221   13.5763   -9.8288 H   0  0  0  0  0  0  0  0  0  0  0  0
   11.1899   13.4501  -12.3177 H   0  0  0  0  0  0  0  0  0  0  0  0
   12.5866   12.3717  -12.3933 H   0  0  0  0  0  0  0  0  0  0  0  0
   14.0087   14.1395  -11.3364 H   0  0  0  0  0  0  0  0  0  0  0  0
   12.6120   15.2178  -11.2608 H   0  0  0  0  0  0  0  0  0  0  0  0
   12.3799   15.0917  -13.7497 H   0  0  0  0  0  0  0  0  0  0  0  0
   13.7766   14.0133  -13.8253 H   0  0  0  0  0  0  0  0  0  0  0  0
   15.1986   15.7811  -12.7683 H   0  0  0  0  0  0  0  0  0  0  0  0
   13.8020   16.8594  -12.6927 H   0  0  0  0  0  0  0  0  0  0  0  0
   13.5699   16.7332  -15.1816 H   0  0  0  0  0  0  0  0  0  0  0  0
   14.9665   15.6549  -15.2572 H   0  0  0  0  0  0  0  0  0  0  0  0
   16.3886   17.4226  -14.2002 H   0  0  0  0  0  0  0  0  0  0  0  0
   14.9920   18.5010  -14.1246 H   0  0  0  0  0  0  0  0  0  0  0  0
   14.7599   18.3748  -16.6135 H   0  0  0  0  0  0  0  0  0  0  0  0
   16.1565   17.2965  -16.6891 H   0  0  0  0  0  0  0  0  0  0  0  0
   17.5791   19.0638  -15.6334 H   0  0  0  0  0  0  0  0  0  0  0  0
   16.1826   20.1421  -15.5554 H   0  0  0  0  0  0  0  0  0  0  0  0
   15.9477   20.0180  -18.0441 H   0  0  0  0  0  0  0  0  0  0  0  0
   17.3442   18.9397  -18.1221 H   0  0  0  0  0  0  0  0  0  0  0  0
   18.7670   20.7070  -17.0640 H   0  0  0  0  0  0  0  0  0  0  0  0
   17.3703   21.7853  -16.9883 H   0  0  0  0  0  0  0  0  0  0  0  0
   17.1382   21.6591  -19.4773 H   0  0  0  0  0  0  0  0  0  0  0  0
   18.5348   20.5808  -19.5529 H   0  0  0  0  0  0  0  0  0  0  0  0
   19.9574   22.3481  -18.4971 H   0  0  0  0  0  0  0  0  0  0  0  0
   18.5609   23.4264  -18.4191 H   0  0  0  0  0  0  0  0  0  0  0  0
   18.3260   23.3023  -20.9079 H   0  0  0  0  0  0  0  0  0  0  0  0
   19.7225   22.2240  -20.9859 H   0  0  0  0  0  0  0  0  0  0  0  0
   21.1453   23.9913  -19.9277 H   0  0  0  0  0  0  0  0  0  0  0  0
   19.7487   25.0696  -19.8521 H   0  0  0  0  0  0  0  0  0  0  0  0
   19.5166   24.9447  -22.3405 H   0  0  0  0  0  0  0  0  0  0  0  0
   20.9118   23.8647  -22.4170 H   0  0  0  0  0  0  0  0  0  0  0  0
   22.3372   25.6298  -21.3614 H   0  0  0  0  0  0  0  0  0  0  0  0
   20.9422   26.7099  -21.2825 H   0  0  0  0  0  0  0  0  0  0  0  0
   20.7061   26.5868  -23.7712 H   0  0  0  0  0  0  0  0  0  0  0  0
   22.1011   25.5067  -23.8501 H   0  0  0  0  0  0  0  0  0  0  0  0
   23.5272   27.2714  -22.7933 H   0  0  0  0  0  0  0  0  0  0  0  0
   22.1321   28.3515  -22.7144 H   0  0  0  0  0  0  0  0  0  0  0  0
   21.8960   28.2283  -25.2031 H   0  0  0  0  0  0  0  0  0  0  0  0
   23.2911   27.1482  -25.2820 H   0  0  0  0  0  0  0  0  0  0  0  0
   24.7171   28.9129  -24.2252 H   0  0  0  0  0  0  0  0  0  0  0  0
   23.3221   29.9930  -24.1463 H   0  0  0  0  0  0  0  0  0  0  0  0
   23.0860   29.8699  -26.6351 H   0  0  0  0  0  0  0  0  0  0  0  0
   24.4810   28.7898  -26.7139 H   0  0  0  0  0  0  0  0  0  0  0  0
   25.9071   30.5544  -25.6571 H   0  0  0  0  0  0  0  0  0  0  0  0
   24.5121   31.6346  -25.5783 H   0  0  0  0  0  0  0  0  0  0  0  0
   24.2761   31.5128  -28.0665 H   0  0  0  0  0  0  0  0  0  0  0  0
   25.6697   30.4309  -28.1462 H   0  0  0  0  0  0  0  0  0  0  0  0
   27.0980   32.1939  -27.0884 H   0  0  0  0  0  0  0  0  0  0  0  0
   25.7042   33.2758  -27.0110 H   0  0  0  0  0  0  0  0  0  0  0  0
   25.4697   33.1501  -29.5004 H   0  0  0  0  0  0  0  0  0  0  0  0
   26.8647   32.0699  -29.5767 H   0  0  0  0  0  0  0  0  0  0  0  0
   28.2891   33.8360  -28.5186 H   0  0  0  0  0  0  0  0  0  0  0  0
   26.8938   34.9161  -28.4447 H   0  0  0  0  0  0  0  0  0  0  0  0
   26.6632   34.7873  -30.9342 H   0  0  0  0  0  0  0  0  0  0  0  0
   28.0599   33.7089  -31.0072 H   0  0  0  0  0  0  0  0  0  0  0  0
   29.4808   35.4776  -29.9502 H   0  0  0  0  0  0  0  0  0  0  0  0
   28.0841   36.5560  -29.8771 H   0  0  0  0  0  0  0  0  0  0  0  0
   27.8547   36.4276  -32.3662 H   0  0  0  0  0  0  0  0  0  0  0  0
   29.2514   35.3492  -32.4392 H   0  0  0  0  0  0  0  0  0  0  0  0
   30.6723   37.1180  -31.3822 H   0  0  0  0  0  0  0  0  0  0  0  0
   29.2756   38.1963  -31.3091 H   0  0  0  0  0  0  0  0  0  0  0  0
   29.0462   38.0666  -33.7986 H   0  0  0  0  0  0  0  0  0  0  0  0
   30.4443   36.9900  -33.8708 H   0  0  0  0  0  0  0  0  0  0  0  0
   31.8624   38.7608  -32.8136 H   0  0  0  0  0  0  0  0  0  0  0  0
   30.4643   39.8374  -32.7414 H   0  0  0  0  0  0  0  0  0  0  0  0
   30.2362   39.7094  -35.2301 H   0  0  0  0  0  0  0  0  0  0  0  0
   31.6330   38.6311  -35.3032 H   0  0  0  0  0  0  0  0  0  0  0  0
   33.0538   40.3998  -34.2461 H   0  0  0  0  0  0  0  0  0  0  0  0
   31.6571   41.4781  -34.1730 H   0  0  0  0  0  0  0  0  0  0  0  0
   31.4277   41.3484  -36.6626 H   0  0  0  0  0  0  0  0  0  0  0  0
   32.8258   40.2718  -36.7348 H   0  0  0  0  0  0  0  0  0  0  0  0
   34.2440   42.0427  -35.6776 H   0  0  0  0  0  0  0  0  0  0  0  0
   32.8457   43.1192  -35.6053 H   0  0  0  0  0  0  0  0  0  0  0  0
   32.6175   42.9886  -38.0949 H   0  0  0  0  0  0  0  0  0  0  0  0
   34.0171   41.9139  -38.1664 H   0  0  0  0  0  0  0  0  0  0  0  0
   35.4330   43.6864  -37.1102 H   0  0  0  0  0  0  0  0  0  0  0  0
   34.0334   44.7610  -37.0364 H   0  0  0  0  0  0  0  0  0  0  0  0
   33.8035   44.6316  -39.5258 H   0  0  0  0  0  0  0  0  0  0  0  0
   35.2045   43.5588  -39.5989 H   0  0  0  0  0  0  0  0  0  0  0  0
   36.6188   45.3325  -38.5427 H   0  0  0  0  0  0  0  0  0  0  0  0
   35.2179   46.4054  -38.4673 H   0  0  0  0  0  0  0  0  0  0  0  0
   34.9867   46.2799  -40.9557 H   0  0  0  0  0  0  0  0  0  0  0  0
   36.3861   45.2053  -41.0321 H   0  0  0  0  0  0  0  0  0  0  0  0
   37.8033   46.9768  -39.9737 H   0  0  0  0  0  0  0  0  0  0  0  0
   36.4038   48.0515  -39.8997 H   0  0  0  0  0  0  0  0  0  0  0  0
   36.1741   47.9248  -42.3883 H   0  0  0  0  0  0  0  0  0  0  0  0
   37.5722   46.8483  -42.4630 H   0  0  0  0  0  0  0  0  0  0  0  0
   38.9910   48.6187  -41.4047 H   0  0  0  0  0  0  0  0  0  0  0  0
   37.5927   49.6952  -41.3324 H   0  0  0  0  0  0  0  0  0  0  0  0
   37.3645   49.5646  -43.8220 H   0  0  0  0  0  0  0  0  0  0  0  0
   38.7641   48.4898  -43.8934 H   0  0  0  0  0  0  0  0  0  0  0  0
   40.1794   50.2628  -42.8360 H   0  0  0  0  0  0  0  0  0  0  0  0
   38.7798   51.3375  -42.7646 H   0  0  0  0  0  0  0  0  0  0  0  0
   38.5526   51.2058  -45.2542 H   0  0  0  0  0  0  0  0  0  0  0  0
   39.9537   50.1329  -45.3247 H   0  0  0  0  0  0  0  0  0  0  0  0
   41.3655   51.9085  -44.2662 H   0  0  0  0  0  0  0  0  0  0  0  0
   39.9645   52.9812  -44.1981 H   0  0  0  0  0  0  0  0  0  0  0  0
   39.7410   52.8463  -46.6879 H   0  0  0  0  0  0  0  0  0  0  0  0
   41.1435   51.7751  -46.7551 H   0  0  0  0  0  0  0  0  0  0  0  0
   42.5510   53.5531  -45.6949 H   0  0  0  0  0  0  0  0  0  0  0  0
   41.1486   54.6242  -45.6302 H   0  0  0  0  0  0  0  0  0  0  0  0
   40.9293   54.4886  -48.1200 H   0  0  0  0  0  0  0  0  0  0  0  0
   42.3317   53.4166  -48.1849 H   0  0  0  0  0  0  0  0  0  0  0  0
   43.7397   55.1941  -47.1250 H   0  0  0  0  0  0  0  0  0  0  0  0
   42.3371   56.2658  -47.0624 H   0  0  0  0  0  0  0  0  0  0  0  0
   42.1219   56.1334  -49.5515 H   0  0  0  0  0  0  0  0  0  0  0  0
   43.5221   55.0592  -49.6159 H   0  0  0  0  0  0  0  0  0  0  0  0
   44.9332   56.8346  -48.5563 H   0  0  0  0  0  0  0  0  0  0  0  0
   43.5335   57.9094  -48.4923 H   0  0  0  0  0  0  0  0  0  0  0  0
   43.3199   57.7790  -50.9827 H   0  0  0  0  0  0  0  0  0  0  0  0
   44.7196   56.7045  -51.0465 H   0  0  0  0  0  0  0  0  0  0  0  0
   46.1328   58.4821  -49.9909 H   0  0  0  0  0  0  0  0  0  0  0  0
   44.7329   59.5569  -49.9271 H   0  0  0  0  0  0  0  0  0  0  0  0
   44.5163   59.4233  -52.4176 H   0  0  0  0  0  0  0  0  0  0  0  0
   45.9140   58.3472  -52.4824 H   0  0  0  0  0  0  0  0  0  0  0  0
   47.3380   60.1341  -51.4517 H   0  0  0  0  0  0  0  0  0  0  0  0
   45.9398   61.2107  -51.3869 H   0  0  0  0  0  0  0  0  0  0  0  0
   47.1339   60.0120  -53.9417 H   0  0  0  0  0  0  0  0  0  0  0  0
   47.3272   61.6846  -53.3849 H   0  0  0  0  0  0  0  0  0  0  0  0
   45.7292   61.0936  -53.8766 H   0  0  0  0  0  0  0  0  0  0  0  0
  1  2  1  0  0  0  0
  1 80  1  0  0  0  0
  1 81  1  0  0  0  0
  1 82  1  0  0  0  0
  2  3  1  0  0  0  0
  2  6  1  0  0  0  0
  3  4  2  0  0  0  0
  3 83  1  0  0  0  0
  4  5  1  0  0  0  0
  4 84  1  0  0  0  0
  5  6  1  0  0  0  0
  5 85  1  0  0  0  0
  5 86  1  0  0  0  0
  6  7  1  0  0  0  0
  6 87  1  0  0  0  0
  7  8  1  0  0  0  0
  7 88  1  0  0  0  0
  7 89  1  0  0  0  0
  8  9  1  0  0  0  0
  8 90  1  0  0  0  0
  8 91  1  0  0  0  0
  9 10  1  0  0  0  0
  9 92  1  0  0  0  0
  9 93  1  0  0  0  0
 10 11  1  0  0  0  0
 10 94  1  0  0  0  0
 10 95  1  0  0  0  0
 11 12  1  0  0  0  0
 11 96  1  0  0  0  0
 11 97  1  0  0  0  0
 12 13  1  0  0  0  0
 12 98  1  0  0  0  0
 12 99  1  0  0  0  0
 13 14  1  0  0  0  0
 13100  1  0  0  0  0
 13101  1  0  0  0  0
 14 15  1  0  0  0  0
 14102  1  0  0  0  0
 14103  1  0  0  0  0
 15 16  1  0  0  0  0
 15104  1  0  0  0  0
 15105  1  0  0  0  0
 16 17  1  0  0  0  0
 16106  1  0  0  0  0
 16107  1  0  0  0  0
 17 18  1  0  0  0  0
 17108  1  0  0  0  0
 17109  1  0  0  0  0
 18 19  1  0  0  0  0
 18110  1  0  0  0  0
 18111  1  0  0  0  0
 19 20  1  0  0  0  0
 19112  1  0  0  0  0
 19113  1  0  0  0  0
 20 21  1  0  0  0  0
 20114  1  0  0  0  0
 20115  1  0  0  0  0
 21 22  1  0  0  0  0
 21116  1  0  0  0  0
 21117  1  0  0  0  0
 22 23  1  0  0  0  0
 22118  1  0  0  0  0
 22119  1  0  0  0  0
 23 24  1  0  0  0  0
 23120  1  0  0  0  0
 23121  1  0  0  0  0
 24 25  1  0  0  0  0
 24122  1  0  0  0  0
 24123  1  0  0  0  0
 25 26  1  0  0  0  0
 25124  1  0  0  0  0
 25125  1  0  0  0  0
 26 27  1  0  0  0  0
 26126  1  0  0  0  0
 26127  1  0  0  0  0
 27 28  1  0  0  0  0
 27128  1  0  0  0  0
 27129  1  0  0  0  0
 28 29  1  0  0  0  0
 28130  1  0  0  0  0
 28131  1  0  0  0  0
 29 30  1  0  0  0  0
 29132  1  0  0  0  0
 29133  1  0  0  0  0
 30 31  1  0  0  0  0
 30134  1  0  0  0  0
 30135  1  0  0  0  0
 31 32  1  0  0  0  0
 31136  1  0  0  0  0
 31137  1  0  0  0  0
 32 33  1  0  0  0  0
 32138  1  0  0  0  0
 32139  1  0  0  0  0
 33 34  1  0  0  0  0
 33140  1  0  0  0  0
 33141  1  0  0  0  0
 34 35  1  0  0  0  0
 34142  1  0  0  0  0
 34143  1  0  0  0  0
 35 36  1  0  0  0  0
 35144  1  0  0  0  0
 35145  1  0  0  0  0
 36 37  1  0  0  0  0
 36146  1  0  0  0  0
 36147  1  0  0  0  0
 37 38  1  0  0  0  0
 37148  1  0  0  0  0
 37149  1  0  0  0  0
 38 39  1  0  0  0  0
 38150  1  0  0  0  0
 38151  1  0  0  0  0
 39 40  1  0  0  0  0
 39152  1  0  0  0  0
 39153  1  0  0  0  0
 40 41  1  0  0  0  0
 40154  1  0  0  0  0
 40155  1  0  0  0  0
 41 42  1  0  0  0  0
 41156  1  0  0  0  0
 41157  1  0  0  0  0
 42 43  1  0  0  0  0
 42158  1  0  0  0  0
 42159  1  0  0  0  0
 43 44  1  0  0  0  0
 43160  1  0  0  0  0
 43161  1  0  0  0  0
 44 45  1  0  0  0  0
 44162  1  0  0  0  0
 44163  1  0  0  0  0
 45 46  1  0  0  0  0
 45164  1  0  0  0  0
 45165  1  0  0  0  0
 46 47  1  0  0  0  0
 46166  1  0  0  0  0
 46167  1  0  0  0  0
 47 48  1  0  0  0  0
 47168  1  0  0  0  0
 47169  1  0  0  0  0
 48 49  1  0  0  0  0
 48170  1  0  0  0  0
 48171  1  0  0  0  0
 49 50  1  0  0  0  0
 49172  1  0  0  0  0
 49173  1  0  0  0  0
 50 51  1  0  0  0  0
 50174  1  0  0  0  0
 50175  1  0  0  0  0
 51 52  1  0  0  0  0
 51176  1  0  0  0  0
 51177  1  0  0  0  0
 52 53  1  0  0  0  0
 52178  1  0  0  0  0
 52179  1  0  0  0  0
 53 54  1  0  0  0  0
 53180  1  0  0  0  0
 53181  1  0  0  0  0
 54 55  1  0  0  0  0
 54182  1  0  0  0  0
 54183  1  0  0  0  0
 55 56  1  0  0  0  0
 55184  1  0  0  0  0
 55185  1  0  0  0  0
 56 57  1  0  0  0  0
 56186  1  0  0  0  0
 56187  1  0  0  0  0
 57 58  1  0  0  0  0
 57188  1  0  0  0  0
 57189  1  0  0  0  0
 58 59  1  0  0  0  0
 58190  1  0  0  0  0
 58191  1  0  0  0  0
 59 60  1  0  0  0  0
 59192  1  0  0  0  0
 59193  1  0  0  0  0
 60 61  1  0  0  0  0
 60194  1  0  0  0  0
 60195  1  0  0  0  0
 61 62  1  0  0  0  0
 61196  1  0  0  0  0
 61197  1  0  0  0  0
 62 63  1  0  0  0  0
 62198  1  0  0  0  0
 62199  1  0  0  0  0
 63 64  1  0  0  0  0
 63200  1  0  0  0  0
 63201  1  0  0  0  0
 64 65  1  0  0  0  0
 64202  1  0  0  0  0
 64203  1  0  0  0  0
 65 66  1  0  0  0  0
 65204  1  0  0  0  0
 65205  1  0  0  0  0
 66 67  1  0  0  0  0
 66206  1  0  0  0  0
 66207  1  0  0  0  0
 67 68  1  0  0  0  0
 67208  1  0  0  0  0
 67209  1  0  0  0  0
 68 69  1  0  0  0  0
 68210  1  0  0  0  0
 68211  1  0  0  0  0
 69 70  1  0  0  0  0
 69212  1  0  0  0  0
 69213  1  0  0  0  0
 70 71  1  0  0  0  0
 70214  1  0  0  0  0
 70215  1  0  0  0  0
 71 72  1  0  0  0  0
 71216  1  0  0  0  0
 71217  1  0  0  0  0
 72 73  1  0  0  0  0
 72218  1  0  0  0  0
 72219  1  0  0  0  0
 73 74  1  0  0  0  0
 73220  1  0  0  0  0
 73221  1  0  0  0  0
 74 75  1  0  0  0  0
 74222  1  0  0  0  0
 74223  1  0  0  0  0
 75 76  1  0  0  0  0
 75224  1  0  0  0  0
 75225  1  0  0  0  0
 76 77  1  0  0  0  0
 76226  1  0  0  0  0
 76227  1  0  0  0  0
 77 78  1  0  0  0  0
 77228  1  0  0  0  0
 77229  1  0  0  0  0
 78 79  1  0  0  0  0
 78230  1  0  0  0  0
 78231  1  0  0  0  0
 79232  1  0  0  0  0
 79233  1  0  0  0  0
 79234  1  0  0  0  0
M  END
$$$$
