
 OpenBabel04232216543D

242241  0  0  0  0  0  0  0  0999 V2000
    0.9232    0.0379   -0.0429 C   0  0  0  0  0  0  0  0  0  0  0  0
    2.4423    0.0365   -0.0239 C   0  0  0  0  0  0  0  0  0  0  0  0
    2.9753    0.9886    1.0443 C   0  0  0  0  0  0  0  0  0  0  0  0
    4.5006    0.9843    1.0573 C   0  0  0  0  0  0  0  0  0  0  0  0
    4.9809    1.9057    2.0873 N   0  0  0  0  0  0  0  0  0  0  0  0
    6.3975    1.8877    2.0810 N   0  0  0  0  0  0  0  0  0  0  0  0
    6.8532    2.7763    3.0860 N   0  0  0  0  0  0  0  0  0  0  0  0
    8.3148    2.7625    3.0858 C   0  0  0  0  0  0  0  0  0  0  0  0
    8.8266    3.7155    4.1576 C   0  0  0  0  0  0  0  0  0  0  0  0
   10.3491    3.7182    4.1702 C   0  0  0  0  0  0  0  0  0  0  0  0
   10.8667    4.6680    5.2374 C   0  0  0  0  0  0  0  0  0  0  0  0
   12.3857    4.6657    5.2489 C   0  0  0  0  0  0  0  0  0  0  0  0
   12.8994    5.6156    6.3166 C   0  0  0  0  0  0  0  0  0  0  0  0
   14.4173    5.6102    6.3296 C   0  0  0  0  0  0  0  0  0  0  0  0
   14.9287    6.5596    7.3972 C   0  0  0  0  0  0  0  0  0  0  0  0
   16.4458    6.5527    7.4107 C   0  0  0  0  0  0  0  0  0  0  0  0
   16.9561    7.5006    8.4795 C   0  0  0  0  0  0  0  0  0  0  0  0
   18.4730    7.4947    8.4912 C   0  0  0  0  0  0  0  0  0  0  0  0
   18.9831    8.4440    9.5586 C   0  0  0  0  0  0  0  0  0  0  0  0
   20.5001    8.4397    9.5688 C   0  0  0  0  0  0  0  0  0  0  0  0
   21.0100    9.3904   10.6348 C   0  0  0  0  0  0  0  0  0  0  0  0
   22.5267    9.3876   10.6438 C   0  0  0  0  0  0  0  0  0  0  0  0
   23.0367   10.3368   11.7110 C   0  0  0  0  0  0  0  0  0  0  0  0
   24.5533   10.3325   11.7213 C   0  0  0  0  0  0  0  0  0  0  0  0
   25.0634   11.2816   12.7885 C   0  0  0  0  0  0  0  0  0  0  0  0
   26.5799   11.2789   12.7976 C   0  0  0  0  0  0  0  0  0  0  0  0
   27.0902   12.2279   13.8647 C   0  0  0  0  0  0  0  0  0  0  0  0
   28.6065   12.2253   13.8739 C   0  0  0  0  0  0  0  0  0  0  0  0
   29.1169   13.1742   14.9408 C   0  0  0  0  0  0  0  0  0  0  0  0
   30.6332   13.1717   14.9501 C   0  0  0  0  0  0  0  0  0  0  0  0
   31.1435   14.1205   16.0170 C   0  0  0  0  0  0  0  0  0  0  0  0
   32.6598   14.1181   16.0263 C   0  0  0  0  0  0  0  0  0  0  0  0
   33.1702   15.0669   17.0932 C   0  0  0  0  0  0  0  0  0  0  0  0
   34.6864   15.0659   17.1011 C   0  0  0  0  0  0  0  0  0  0  0  0
   35.1968   16.0147   18.1680 C   0  0  0  0  0  0  0  0  0  0  0  0
   36.7131   16.0153   18.1746 C   0  0  0  0  0  0  0  0  0  0  0  0
   37.2235   16.9626   19.2429 C   0  0  0  0  0  0  0  0  0  0  0  0
   38.7398   16.9646   19.2481 C   0  0  0  0  0  0  0  0  0  0  0  0
   39.2502   17.9104   20.3177 C   0  0  0  0  0  0  0  0  0  0  0  0
   40.7664   17.9140   20.3216 C   0  0  0  0  0  0  0  0  0  0  0  0
   41.2768   18.8613   21.3899 C   0  0  0  0  0  0  0  0  0  0  0  0
   42.7931   18.8648   21.3938 C   0  0  0  0  0  0  0  0  0  0  0  0
   43.3035   19.8121   22.4620 C   0  0  0  0  0  0  0  0  0  0  0  0
   44.8197   19.8157   22.4660 C   0  0  0  0  0  0  0  0  0  0  0  0
   45.3302   20.7630   23.5342 C   0  0  0  0  0  0  0  0  0  0  0  0
   46.8464   20.7666   23.5381 C   0  0  0  0  0  0  0  0  0  0  0  0
   47.3568   21.7139   24.6064 C   0  0  0  0  0  0  0  0  0  0  0  0
   48.8730   21.7175   24.6103 C   0  0  0  0  0  0  0  0  0  0  0  0
   49.3835   22.6648   25.6785 C   0  0  0  0  0  0  0  0  0  0  0  0
   50.8997   22.6698   25.6811 C   0  0  0  0  0  0  0  0  0  0  0  0
   51.4101   23.6171   26.7494 C   0  0  0  0  0  0  0  0  0  0  0  0
   52.9264   23.6207   26.7533 C   0  0  0  0  0  0  0  0  0  0  0  0
   53.4368   24.5665   27.8229 C   0  0  0  0  0  0  0  0  0  0  0  0
   54.9530   24.5686   27.8282 C   0  0  0  0  0  0  0  0  0  0  0  0
   55.4634   25.5158   28.8964 C   0  0  0  0  0  0  0  0  0  0  0  0
   56.9797   25.5194   28.9003 C   0  0  0  0  0  0  0  0  0  0  0  0
   57.4901   26.4652   29.9699 C   0  0  0  0  0  0  0  0  0  0  0  0
   59.0064   26.4703   29.9725 C   0  0  0  0  0  0  0  0  0  0  0  0
   59.5168   27.4161   31.0420 C   0  0  0  0  0  0  0  0  0  0  0  0
   61.0330   27.4227   31.0433 C   0  0  0  0  0  0  0  0  0  0  0  0
   61.5434   28.3685   32.1129 C   0  0  0  0  0  0  0  0  0  0  0  0
   63.0597   28.3750   32.1141 C   0  0  0  0  0  0  0  0  0  0  0  0
   63.5701   29.3209   33.1838 C   0  0  0  0  0  0  0  0  0  0  0  0
   65.0864   29.3274   33.1849 C   0  0  0  0  0  0  0  0  0  0  0  0
   65.5966   30.2733   34.2546 C   0  0  0  0  0  0  0  0  0  0  0  0
   67.1131   30.2797   34.2557 C   0  0  0  0  0  0  0  0  0  0  0  0
   67.6232   31.2258   35.3254 C   0  0  0  0  0  0  0  0  0  0  0  0
   69.1398   31.2320   35.3264 C   0  0  0  0  0  0  0  0  0  0  0  0
   69.6499   32.1782   36.3964 C   0  0  0  0  0  0  0  0  0  0  0  0
   71.1666   32.1829   36.3986 C   0  0  0  0  0  0  0  0  0  0  0  0
   71.6767   33.1291   37.4686 C   0  0  0  0  0  0  0  0  0  0  0  0
   73.1935   33.1338   37.4709 C   0  0  0  0  0  0  0  0  0  0  0  0
   73.7039   34.0801   38.5410 C   0  0  0  0  0  0  0  0  0  0  0  0
   75.2209   34.0852   38.5436 C   0  0  0  0  0  0  0  0  0  0  0  0
   75.7325   35.0316   39.6137 C   0  0  0  0  0  0  0  0  0  0  0  0
   77.2500   35.0380   39.6142 C   0  0  0  0  0  0  0  0  0  0  0  0
   77.7650   35.9847   40.6855 C   0  0  0  0  0  0  0  0  0  0  0  0
   79.2854   35.9929   40.6886 C   0  0  0  0  0  0  0  0  0  0  0  0
   79.8018   36.9391   41.7615 C   0  0  0  0  0  0  0  0  0  0  0  0
   81.3240   36.9587   41.7746 C   0  0  0  0  0  0  0  0  0  0  0  0
   81.8349   37.9033   42.8458 C   0  0  0  0  0  0  0  0  0  0  0  0
    0.5539   -0.6486   -0.8108 H   0  0  0  0  0  0  0  0  0  0  0  0
    0.5390    1.0383   -0.2641 H   0  0  0  0  0  0  0  0  0  0  0  0
    0.5226   -0.2801    0.9236 H   0  0  0  0  0  0  0  0  0  0  0  0
    2.8194    0.3325   -1.0101 H   0  0  0  0  0  0  0  0  0  0  0  0
    2.8031   -0.9806    0.1695 H   0  0  0  0  0  0  0  0  0  0  0  0
    2.5916    0.6892    2.0280 H   0  0  0  0  0  0  0  0  0  0  0  0
    2.6076    2.0039    0.8487 H   0  0  0  0  0  0  0  0  0  0  0  0
    4.8701    1.2968    0.0722 H   0  0  0  0  0  0  0  0  0  0  0  0
    4.8669   -0.0317    1.2508 H   0  0  0  0  0  0  0  0  0  0  0  0
    4.6206    1.6112    2.9953 H   0  0  0  0  0  0  0  0  0  0  0  0
    6.7492    2.1881    1.1610 H   0  0  0  0  0  0  0  0  0  0  0  0
    6.5170    2.4903    4.0057 H   0  0  0  0  0  0  0  0  0  0  0  0
    8.6986    3.0831    2.1086 H   0  0  0  0  0  0  0  0  0  0  0  0
    8.6917    1.7506    3.2823 H   0  0  0  0  0  0  0  0  0  0  0  0
    8.4513    3.4146    5.1439 H   0  0  0  0  0  0  0  0  0  0  0  0
    8.4588    4.7319    3.9659 H   0  0  0  0  0  0  0  0  0  0  0  0
   10.7307    4.0220    3.1878 H   0  0  0  0  0  0  0  0  0  0  0  0
   10.7231    2.7047    4.3631 H   0  0  0  0  0  0  0  0  0  0  0  0
   10.4875    4.3670    6.2213 H   0  0  0  0  0  0  0  0  0  0  0  0
   10.4983    5.6837    5.0442 H   0  0  0  0  0  0  0  0  0  0  0  0
   12.7685    4.9685    4.2665 H   0  0  0  0  0  0  0  0  0  0  0  0
   12.7570    3.6517    5.4431 H   0  0  0  0  0  0  0  0  0  0  0  0
   12.5177    5.3147    7.3001 H   0  0  0  0  0  0  0  0  0  0  0  0
   12.5316    6.6305    6.1224 H   0  0  0  0  0  0  0  0  0  0  0  0
   14.8011    5.9118    5.3472 H   0  0  0  0  0  0  0  0  0  0  0  0
   14.7862    4.5958    6.5247 H   0  0  0  0  0  0  0  0  0  0  0  0
   14.5452    6.2592    8.3800 H   0  0  0  0  0  0  0  0  0  0  0  0
   14.5617    7.5747    7.2019 H   0  0  0  0  0  0  0  0  0  0  0  0
   16.8301    6.8549    6.4288 H   0  0  0  0  0  0  0  0  0  0  0  0
   16.8137    5.5377    7.6049 H   0  0  0  0  0  0  0  0  0  0  0  0
   16.5734    7.1977    9.4619 H   0  0  0  0  0  0  0  0  0  0  0  0
   16.5876    8.5156    8.2864 H   0  0  0  0  0  0  0  0  0  0  0  0
   18.8558    7.7964    7.5085 H   0  0  0  0  0  0  0  0  0  0  0  0
   18.8417    6.4801    8.6858 H   0  0  0  0  0  0  0  0  0  0  0  0
   18.6017    8.1417   10.5415 H   0  0  0  0  0  0  0  0  0  0  0  0
   18.6135    9.4583    9.3647 H   0  0  0  0  0  0  0  0  0  0  0  0
   20.8816    8.7408    8.5854 H   0  0  0  0  0  0  0  0  0  0  0  0
   20.8699    7.4256    9.7641 H   0  0  0  0  0  0  0  0  0  0  0  0
   20.6295    9.0886   11.6184 H   0  0  0  0  0  0  0  0  0  0  0  0
   20.6391   10.4044   10.4404 H   0  0  0  0  0  0  0  0  0  0  0  0
   22.9072    9.6909    9.6606 H   0  0  0  0  0  0  0  0  0  0  0  0
   22.8977    8.3735   10.8368 H   0  0  0  0  0  0  0  0  0  0  0  0
   22.6551   10.0344   12.6941 H   0  0  0  0  0  0  0  0  0  0  0  0
   22.6668   11.3513   11.5172 H   0  0  0  0  0  0  0  0  0  0  0  0
   24.9349   10.6349   10.7383 H   0  0  0  0  0  0  0  0  0  0  0  0
   24.9233    9.3181   11.9151 H   0  0  0  0  0  0  0  0  0  0  0  0
   24.6828   10.9784   13.7718 H   0  0  0  0  0  0  0  0  0  0  0  0
   24.6924   12.2959   12.5956 H   0  0  0  0  0  0  0  0  0  0  0  0
   26.9605   11.5821   11.8143 H   0  0  0  0  0  0  0  0  0  0  0  0
   26.9511   10.2646   12.9904 H   0  0  0  0  0  0  0  0  0  0  0  0
   26.7095   11.9248   14.8480 H   0  0  0  0  0  0  0  0  0  0  0  0
   26.7189   13.2422   13.6718 H   0  0  0  0  0  0  0  0  0  0  0  0
   28.9872   12.5284   12.8904 H   0  0  0  0  0  0  0  0  0  0  0  0
   28.9778   11.2110   14.0666 H   0  0  0  0  0  0  0  0  0  0  0  0
   28.7362   12.8711   15.9242 H   0  0  0  0  0  0  0  0  0  0  0  0
   28.7456   14.1886   14.7480 H   0  0  0  0  0  0  0  0  0  0  0  0
   31.0138   13.4748   13.9666 H   0  0  0  0  0  0  0  0  0  0  0  0
   31.0044   12.1573   15.1428 H   0  0  0  0  0  0  0  0  0  0  0  0
   30.7628   13.8175   17.0005 H   0  0  0  0  0  0  0  0  0  0  0  0
   30.7722   15.1349   15.8242 H   0  0  0  0  0  0  0  0  0  0  0  0
   33.0404   14.4211   15.0428 H   0  0  0  0  0  0  0  0  0  0  0  0
   33.0312   13.1036   16.2190 H   0  0  0  0  0  0  0  0  0  0  0  0
   32.7905   14.7630   18.0768 H   0  0  0  0  0  0  0  0  0  0  0  0
   32.7977   16.0811   16.9012 H   0  0  0  0  0  0  0  0  0  0  0  0
   35.0659   15.3698   16.1174 H   0  0  0  0  0  0  0  0  0  0  0  0
   35.0590   14.0517   17.2931 H   0  0  0  0  0  0  0  0  0  0  0  0
   34.8183   15.7099   19.1518 H   0  0  0  0  0  0  0  0  0  0  0  0
   34.8232   17.0286   17.9769 H   0  0  0  0  0  0  0  0  0  0  0  0
   37.0914   16.3214   17.1912 H   0  0  0  0  0  0  0  0  0  0  0  0
   37.0869   15.0011   18.3644 H   0  0  0  0  0  0  0  0  0  0  0  0
   36.8462   16.6555   20.2264 H   0  0  0  0  0  0  0  0  0  0  0  0
   36.8487   17.9765   19.0540 H   0  0  0  0  0  0  0  0  0  0  0  0
   39.1169   17.2729   18.2649 H   0  0  0  0  0  0  0  0  0  0  0  0
   39.1148   15.9505   19.4357 H   0  0  0  0  0  0  0  0  0  0  0  0
   38.8741   17.6013   21.3011 H   0  0  0  0  0  0  0  0  0  0  0  0
   38.8741   18.9243   20.1309 H   0  0  0  0  0  0  0  0  0  0  0  0
   41.1425   18.2219   19.3379 H   0  0  0  0  0  0  0  0  0  0  0  0
   41.1424   16.9003   20.5097 H   0  0  0  0  0  0  0  0  0  0  0  0
   40.9007   18.5535   22.3737 H   0  0  0  0  0  0  0  0  0  0  0  0
   40.9008   19.8749   21.2018 H   0  0  0  0  0  0  0  0  0  0  0  0
   43.1691   19.1727   20.4100 H   0  0  0  0  0  0  0  0  0  0  0  0
   43.1691   17.8512   21.5819 H   0  0  0  0  0  0  0  0  0  0  0  0
   42.9274   19.5043   23.4458 H   0  0  0  0  0  0  0  0  0  0  0  0
   42.9274   20.8257   22.2740 H   0  0  0  0  0  0  0  0  0  0  0  0
   45.1958   20.1235   21.4822 H   0  0  0  0  0  0  0  0  0  0  0  0
   45.1958   18.8021   22.6540 H   0  0  0  0  0  0  0  0  0  0  0  0
   44.9541   20.4552   24.5180 H   0  0  0  0  0  0  0  0  0  0  0  0
   44.9541   21.7766   23.3461 H   0  0  0  0  0  0  0  0  0  0  0  0
   47.2224   21.0744   22.5543 H   0  0  0  0  0  0  0  0  0  0  0  0
   47.2224   19.7530   23.7262 H   0  0  0  0  0  0  0  0  0  0  0  0
   46.9808   21.4061   25.5902 H   0  0  0  0  0  0  0  0  0  0  0  0
   46.9807   22.7275   24.4183 H   0  0  0  0  0  0  0  0  0  0  0  0
   49.2490   22.0253   23.6265 H   0  0  0  0  0  0  0  0  0  0  0  0
   49.2492   20.7039   24.7984 H   0  0  0  0  0  0  0  0  0  0  0  0
   49.0085   22.3561   26.6625 H   0  0  0  0  0  0  0  0  0  0  0  0
   49.0063   23.6781   25.4913 H   0  0  0  0  0  0  0  0  0  0  0  0
   51.2747   22.9785   24.6972 H   0  0  0  0  0  0  0  0  0  0  0  0
   51.2768   21.6565   25.8684 H   0  0  0  0  0  0  0  0  0  0  0  0
   51.0341   23.3093   27.7332 H   0  0  0  0  0  0  0  0  0  0  0  0
   51.0341   24.6307   26.5613 H   0  0  0  0  0  0  0  0  0  0  0  0
   53.3024   23.9299   25.7699 H   0  0  0  0  0  0  0  0  0  0  0  0
   53.3025   22.6069   26.9400 H   0  0  0  0  0  0  0  0  0  0  0  0
   53.0597   24.2582   28.8061 H   0  0  0  0  0  0  0  0  0  0  0  0
   53.0618   25.5806   27.6353 H   0  0  0  0  0  0  0  0  0  0  0  0
   55.3302   24.8756   26.8445 H   0  0  0  0  0  0  0  0  0  0  0  0
   55.3279   23.5547   28.0170 H   0  0  0  0  0  0  0  0  0  0  0  0
   55.0873   25.2079   29.8801 H   0  0  0  0  0  0  0  0  0  0  0  0
   55.0875   26.5295   28.7083 H   0  0  0  0  0  0  0  0  0  0  0  0
   57.3556   25.8286   27.9169 H   0  0  0  0  0  0  0  0  0  0  0  0
   57.3559   24.5056   29.0870 H   0  0  0  0  0  0  0  0  0  0  0  0
   57.1152   26.1552   30.9534 H   0  0  0  0  0  0  0  0  0  0  0  0
   57.1129   27.4788   29.7840 H   0  0  0  0  0  0  0  0  0  0  0  0
   59.3811   26.7803   28.9889 H   0  0  0  0  0  0  0  0  0  0  0  0
   59.3837   25.4567   30.1583 H   0  0  0  0  0  0  0  0  0  0  0  0
   59.1430   27.1052   32.0258 H   0  0  0  0  0  0  0  0  0  0  0  0
   59.1385   28.4294   30.8570 H   0  0  0  0  0  0  0  0  0  0  0  0
   61.4067   27.7336   30.0596 H   0  0  0  0  0  0  0  0  0  0  0  0
   61.4114   26.4093   31.2283 H   0  0  0  0  0  0  0  0  0  0  0  0
   61.1698   28.0576   33.0966 H   0  0  0  0  0  0  0  0  0  0  0  0
   61.1650   29.3817   31.9279 H   0  0  0  0  0  0  0  0  0  0  0  0
   63.4333   28.6859   31.1304 H   0  0  0  0  0  0  0  0  0  0  0  0
   63.4381   27.3618   32.2991 H   0  0  0  0  0  0  0  0  0  0  0  0
   63.1964   29.0099   34.1674 H   0  0  0  0  0  0  0  0  0  0  0  0
   63.1917   30.3341   32.9987 H   0  0  0  0  0  0  0  0  0  0  0  0
   65.4600   29.6383   32.2013 H   0  0  0  0  0  0  0  0  0  0  0  0
   65.4647   28.3142   33.3700 H   0  0  0  0  0  0  0  0  0  0  0  0
   65.2231   29.9623   35.2382 H   0  0  0  0  0  0  0  0  0  0  0  0
   65.2184   31.2864   34.0695 H   0  0  0  0  0  0  0  0  0  0  0  0
   67.4866   30.5906   33.2721 H   0  0  0  0  0  0  0  0  0  0  0  0
   67.4913   29.2666   34.4409 H   0  0  0  0  0  0  0  0  0  0  0  0
   67.2497   30.9148   36.3090 H   0  0  0  0  0  0  0  0  0  0  0  0
   67.2451   32.2389   35.1402 H   0  0  0  0  0  0  0  0  0  0  0  0
   69.5134   31.5430   34.3430 H   0  0  0  0  0  0  0  0  0  0  0  0
   69.5179   30.2190   35.5117 H   0  0  0  0  0  0  0  0  0  0  0  0
   69.2753   31.8679   37.3797 H   0  0  0  0  0  0  0  0  0  0  0  0
   69.2729   33.1914   36.2103 H   0  0  0  0  0  0  0  0  0  0  0  0
   71.5411   32.4931   35.4153 H   0  0  0  0  0  0  0  0  0  0  0  0
   71.5435   31.1696   36.5847 H   0  0  0  0  0  0  0  0  0  0  0  0
   71.3020   32.8188   38.4518 H   0  0  0  0  0  0  0  0  0  0  0  0
   71.2997   34.1423   37.2825 H   0  0  0  0  0  0  0  0  0  0  0  0
   73.5679   33.4440   36.4876 H   0  0  0  0  0  0  0  0  0  0  0  0
   73.5703   32.1205   37.6569 H   0  0  0  0  0  0  0  0  0  0  0  0
   73.3290   33.7698   39.5241 H   0  0  0  0  0  0  0  0  0  0  0  0
   73.3267   35.0933   38.3548 H   0  0  0  0  0  0  0  0  0  0  0  0
   75.5951   34.3951   37.5600 H   0  0  0  0  0  0  0  0  0  0  0  0
   75.5975   33.0717   38.7293 H   0  0  0  0  0  0  0  0  0  0  0  0
   75.3583   34.7202   40.5971 H   0  0  0  0  0  0  0  0  0  0  0  0
   75.3536   36.0444   39.4283 H   0  0  0  0  0  0  0  0  0  0  0  0
   77.6223   35.3486   38.6310 H   0  0  0  0  0  0  0  0  0  0  0  0
   77.6270   34.0246   39.7996 H   0  0  0  0  0  0  0  0  0  0  0  0
   77.3901   35.6731   41.6682 H   0  0  0  0  0  0  0  0  0  0  0  0
   77.3854   36.9970   40.4997 H   0  0  0  0  0  0  0  0  0  0  0  0
   79.6560   36.3042   39.7043 H   0  0  0  0  0  0  0  0  0  0  0  0
   79.6608   34.9787   40.8712 H   0  0  0  0  0  0  0  0  0  0  0  0
   79.4241   36.6243   42.7423 H   0  0  0  0  0  0  0  0  0  0  0  0
   79.4171   37.9498   41.5768 H   0  0  0  0  0  0  0  0  0  0  0  0
   81.7019   37.2754   40.7952 H   0  0  0  0  0  0  0  0  0  0  0  0
   81.7090   35.9491   41.9614 H   0  0  0  0  0  0  0  0  0  0  0  0
   81.4809   38.9232   42.6643 H   0  0  0  0  0  0  0  0  0  0  0  0
   82.9280   37.9139   42.8512 H   0  0  0  0  0  0  0  0  0  0  0  0
   81.4880   37.5907   43.8359 H   0  0  0  0  0  0  0  0  0  0  0  0
  1  2  1  0  0  0  0
  1 82  1  0  0  0  0
  1 83  1  0  0  0  0
  1 84  1  0  0  0  0
  2  3  1  0  0  0  0
  2 85  1  0  0  0  0
  2 86  1  0  0  0  0
  3  4  1  0  0  0  0
  3 87  1  0  0  0  0
  3 88  1  0  0  0  0
  4  5  1  0  0  0  0
  4 89  1  0  0  0  0
  4 90  1  0  0  0  0
  5  6  1  0  0  0  0
  5 91  1  0  0  0  0
  6  7  1  0  0  0  0
  6 92  1  0  0  0  0
  7  8  1  0  0  0  0
  7 93  1  0  0  0  0
  8  9  1  0  0  0  0
  8 94  1  0  0  0  0
  8 95  1  0  0  0  0
  9 10  1  0  0  0  0
  9 96  1  0  0  0  0
  9 97  1  0  0  0  0
 10 11  1  0  0  0  0
 10 98  1  0  0  0  0
 10 99  1  0  0  0  0
 11 12  1  0  0  0  0
 11100  1  0  0  0  0
 11101  1  0  0  0  0
 12 13  1  0  0  0  0
 12102  1  0  0  0  0
 12103  1  0  0  0  0
 13 14  1  0  0  0  0
 13104  1  0  0  0  0
 13105  1  0  0  0  0
 14 15  1  0  0  0  0
 14106  1  0  0  0  0
 14107  1  0  0  0  0
 15 16  1  0  0  0  0
 15108  1  0  0  0  0
 15109  1  0  0  0  0
 16 17  1  0  0  0  0
 16110  1  0  0  0  0
 16111  1  0  0  0  0
 17 18  1  0  0  0  0
 17112  1  0  0  0  0
 17113  1  0  0  0  0
 18 19  1  0  0  0  0
 18114  1  0  0  0  0
 18115  1  0  0  0  0
 19 20  1  0  0  0  0
 19116  1  0  0  0  0
 19117  1  0  0  0  0
 20 21  1  0  0  0  0
 20118  1  0  0  0  0
 20119  1  0  0  0  0
 21 22  1  0  0  0  0
 21120  1  0  0  0  0
 21121  1  0  0  0  0
 22 23  1  0  0  0  0
 22122  1  0  0  0  0
 22123  1  0  0  0  0
 23 24  1  0  0  0  0
 23124  1  0  0  0  0
 23125  1  0  0  0  0
 24 25  1  0  0  0  0
 24126  1  0  0  0  0
 24127  1  0  0  0  0
 25 26  1  0  0  0  0
 25128  1  0  0  0  0
 25129  1  0  0  0  0
 26 27  1  0  0  0  0
 26130  1  0  0  0  0
 26131  1  0  0  0  0
 27 28  1  0  0  0  0
 27132  1  0  0  0  0
 27133  1  0  0  0  0
 28 29  1  0  0  0  0
 28134  1  0  0  0  0
 28135  1  0  0  0  0
 29 30  1  0  0  0  0
 29136  1  0  0  0  0
 29137  1  0  0  0  0
 30 31  1  0  0  0  0
 30138  1  0  0  0  0
 30139  1  0  0  0  0
 31 32  1  0  0  0  0
 31140  1  0  0  0  0
 31141  1  0  0  0  0
 32 33  1  0  0  0  0
 32142  1  0  0  0  0
 32143  1  0  0  0  0
 33 34  1  0  0  0  0
 33144  1  0  0  0  0
 33145  1  0  0  0  0
 34 35  1  0  0  0  0
 34146  1  0  0  0  0
 34147  1  0  0  0  0
 35 36  1  0  0  0  0
 35148  1  0  0  0  0
 35149  1  0  0  0  0
 36 37  1  0  0  0  0
 36150  1  0  0  0  0
 36151  1  0  0  0  0
 37 38  1  0  0  0  0
 37152  1  0  0  0  0
 37153  1  0  0  0  0
 38 39  1  0  0  0  0
 38154  1  0  0  0  0
 38155  1  0  0  0  0
 39 40  1  0  0  0  0
 39156  1  0  0  0  0
 39157  1  0  0  0  0
 40 41  1  0  0  0  0
 40158  1  0  0  0  0
 40159  1  0  0  0  0
 41 42  1  0  0  0  0
 41160  1  0  0  0  0
 41161  1  0  0  0  0
 42 43  1  0  0  0  0
 42162  1  0  0  0  0
 42163  1  0  0  0  0
 43 44  1  0  0  0  0
 43164  1  0  0  0  0
 43165  1  0  0  0  0
 44 45  1  0  0  0  0
 44166  1  0  0  0  0
 44167  1  0  0  0  0
 45 46  1  0  0  0  0
 45168  1  0  0  0  0
 45169  1  0  0  0  0
 46 47  1  0  0  0  0
 46170  1  0  0  0  0
 46171  1  0  0  0  0
 47 48  1  0  0  0  0
 47172  1  0  0  0  0
 47173  1  0  0  0  0
 48 49  1  0  0  0  0
 48174  1  0  0  0  0
 48175  1  0  0  0  0
 49 50  1  0  0  0  0
 49176  1  0  0  0  0
 49177  1  0  0  0  0
 50 51  1  0  0  0  0
 50178  1  0  0  0  0
 50179  1  0  0  0  0
 51 52  1  0  0  0  0
 51180  1  0  0  0  0
 51181  1  0  0  0  0
 52 53  1  0  0  0  0
 52182  1  0  0  0  0
 52183  1  0  0  0  0
 53 54  1  0  0  0  0
 53184  1  0  0  0  0
 53185  1  0  0  0  0
 54 55  1  0  0  0  0
 54186  1  0  0  0  0
 54187  1  0  0  0  0
 55 56  1  0  0  0  0
 55188  1  0  0  0  0
 55189  1  0  0  0  0
 56 57  1  0  0  0  0
 56190  1  0  0  0  0
 56191  1  0  0  0  0
 57 58  1  0  0  0  0
 57192  1  0  0  0  0
 57193  1  0  0  0  0
 58 59  1  0  0  0  0
 58194  1  0  0  0  0
 58195  1  0  0  0  0
 59 60  1  0  0  0  0
 59196  1  0  0  0  0
 59197  1  0  0  0  0
 60 61  1  0  0  0  0
 60198  1  0  0  0  0
 60199  1  0  0  0  0
 61 62  1  0  0  0  0
 61200  1  0  0  0  0
 61201  1  0  0  0  0
 62 63  1  0  0  0  0
 62202  1  0  0  0  0
 62203  1  0  0  0  0
 63 64  1  0  0  0  0
 63204  1  0  0  0  0
 63205  1  0  0  0  0
 64 65  1  0  0  0  0
 64206  1  0  0  0  0
 64207  1  0  0  0  0
 65 66  1  0  0  0  0
 65208  1  0  0  0  0
 65209  1  0  0  0  0
 66 67  1  0  0  0  0
 66210  1  0  0  0  0
 66211  1  0  0  0  0
 67 68  1  0  0  0  0
 67212  1  0  0  0  0
 67213  1  0  0  0  0
 68 69  1  0  0  0  0
 68214  1  0  0  0  0
 68215  1  0  0  0  0
 69 70  1  0  0  0  0
 69216  1  0  0  0  0
 69217  1  0  0  0  0
 70 71  1  0  0  0  0
 70218  1  0  0  0  0
 70219  1  0  0  0  0
 71 72  1  0  0  0  0
 71220  1  0  0  0  0
 71221  1  0  0  0  0
 72 73  1  0  0  0  0
 72222  1  0  0  0  0
 72223  1  0  0  0  0
 73 74  1  0  0  0  0
 73224  1  0  0  0  0
 73225  1  0  0  0  0
 74 75  1  0  0  0  0
 74226  1  0  0  0  0
 74227  1  0  0  0  0
 75 76  1  0  0  0  0
 75228  1  0  0  0  0
 75229  1  0  0  0  0
 76 77  1  0  0  0  0
 76230  1  0  0  0  0
 76231  1  0  0  0  0
 77 78  1  0  0  0  0
 77232  1  0  0  0  0
 77233  1  0  0  0  0
 78 79  1  0  0  0  0
 78234  1  0  0  0  0
 78235  1  0  0  0  0
 79 80  1  0  0  0  0
 79236  1  0  0  0  0
 79237  1  0  0  0  0
 80 81  1  0  0  0  0
 80238  1  0  0  0  0
 80239  1  0  0  0  0
 81240  1  0  0  0  0
 81241  1  0  0  0  0
 81242  1  0  0  0  0
M  END
$$$$
