
 OpenBabel04232216433D

 45 46  0  0  0  0  0  0  0  0999 V2000
    2.0693   -0.3276   -1.8457 C   0  0  0  0  0  0  0  0  0  0  0  0
    2.1574   -0.0118   -0.1957 C   0  0  0  0  0  0  0  0  0  0  0  0
    3.0321    0.2657    1.0875 C   0  0  0  0  0  0  0  0  0  0  0  0
    4.3027    0.3705    1.5240 C   0  0  0  0  0  0  0  0  0  0  0  0
    4.7663    0.7068    2.9218 C   0  0  0  0  0  0  0  0  0  0  0  0
    3.9950    1.1943    4.1154 C   0  0  0  0  0  0  0  0  0  0  0  0
    3.6308    0.0650    5.0722 C   0  0  0  0  0  0  0  0  0  0  0  0
    2.9233    0.5967    6.3115 C   0  0  0  0  0  0  0  0  0  0  0  0
    6.0811    0.6139    3.0025 N   0  0  0  0  0  0  0  0  0  0  0  0
    6.7571    0.8543    4.0512 O   0  0  0  0  0  0  0  0  0  0  0  0
    6.6162    0.2830    1.7045 C   0  0  0  0  0  0  0  0  0  0  0  0
    5.5786    0.2052    0.8655 C   0  0  0  0  0  0  0  0  0  0  0  0
    5.6885    0.0934   -0.5804 C   0  0  0  0  0  0  0  0  0  0  0  0
    4.8674    1.1473   -1.2739 C   0  0  0  0  0  0  0  0  0  0  0  0
    6.2277   -0.9831   -1.0863 N   0  0  0  0  0  0  0  0  0  0  0  0
    5.5565   -1.4763   -2.1798 C   0  0  0  0  0  0  0  0  0  0  0  0
    4.7453   -2.7258   -1.9195 C   0  0  0  0  0  0  0  0  0  0  0  0
    5.3674   -0.7892   -3.3183 C   0  0  0  0  0  0  0  0  0  0  0  0
    6.5930   -0.4600   -4.1463 C   0  0  0  0  0  0  0  0  0  0  0  0
    4.0183   -0.6145   -3.8531 C   0  0  0  0  0  0  0  0  0  0  0  0
    2.8167   -0.4312   -3.2351 C   0  0  0  0  0  0  0  0  0  0  0  0
    1.3518    0.4706   -2.1214 H   0  0  0  0  0  0  0  0  0  0  0  0
    1.4443   -1.2344   -1.8735 H   0  0  0  0  0  0  0  0  0  0  0  0
    1.5139    0.8884   -0.1490 H   0  0  0  0  0  0  0  0  0  0  0  0
    1.4901   -0.8032    0.1892 H   0  0  0  0  0  0  0  0  0  0  0  0
    2.3147    0.4606    1.9005 H   0  0  0  0  0  0  0  0  0  0  0  0
    3.1028    1.7267    3.7778 H   0  0  0  0  0  0  0  0  0  0  0  0
    4.6048    1.9375    4.6509 H   0  0  0  0  0  0  0  0  0  0  0  0
    4.5290   -0.4828    5.3831 H   0  0  0  0  0  0  0  0  0  0  0  0
    2.9829   -0.6539    4.5595 H   0  0  0  0  0  0  0  0  0  0  0  0
    3.5876    1.2389    6.9000 H   0  0  0  0  0  0  0  0  0  0  0  0
    2.6021   -0.2307    6.9519 H   0  0  0  0  0  0  0  0  0  0  0  0
    2.0380    1.1803    6.0396 H   0  0  0  0  0  0  0  0  0  0  0  0
    7.6726    0.2469    1.5133 H   0  0  0  0  0  0  0  0  0  0  0  0
    4.5675    1.9752   -0.6259 H   0  0  0  0  0  0  0  0  0  0  0  0
    3.9597    0.6496   -1.5080 H   0  0  0  0  0  0  0  0  0  0  0  0
    5.3002    1.5408   -2.1868 H   0  0  0  0  0  0  0  0  0  0  0  0
    5.0240   -3.1638   -0.9594 H   0  0  0  0  0  0  0  0  0  0  0  0
    4.9835   -3.4570   -2.6974 H   0  0  0  0  0  0  0  0  0  0  0  0
    3.6856   -2.5372   -1.9129 H   0  0  0  0  0  0  0  0  0  0  0  0
    7.4895   -0.3085   -3.5317 H   0  0  0  0  0  0  0  0  0  0  0  0
    6.4742    0.4160   -4.7881 H   0  0  0  0  0  0  0  0  0  0  0  0
    6.8138   -1.3186   -4.7981 H   0  0  0  0  0  0  0  0  0  0  0  0
    4.0167   -0.5868   -4.9472 H   0  0  0  0  0  0  0  0  0  0  0  0
    2.0279   -0.3241   -3.9966 H   0  0  0  0  0  0  0  0  0  0  0  0
  1  2  1  0  0  0  0
  1 21  1  0  0  0  0
  1 22  1  0  0  0  0
  1 23  1  0  0  0  0
  2  3  1  0  0  0  0
  2 24  1  0  0  0  0
  2 25  1  0  0  0  0
  3  4  2  3  0  0  0
  3 26  1  0  0  0  0
  4  5  1  0  0  0  0
  4 12  1  0  0  0  0
  5  6  1  0  0  0  0
  5  9  2  0  0  0  0
  6  7  1  0  0  0  0
  6 27  1  0  0  0  0
  6 28  1  0  0  0  0
  7  8  1  0  0  0  0
  7 29  1  0  0  0  0
  7 30  1  0  0  0  0
  8 31  1  0  0  0  0
  8 32  1  0  0  0  0
  8 33  1  0  0  0  0
  9 10  2  0  0  0  0
  9 11  1  0  0  0  0
 11 12  2  0  0  0  0
 11 34  1  0  0  0  0
 12 13  1  0  0  0  0
 13 14  1  0  0  0  0
 13 15  2  3  0  0  0
 14 35  1  0  0  0  0
 14 36  1  0  0  0  0
 14 37  1  0  0  0  0
 15 16  1  0  0  0  0
 16 17  1  0  0  0  0
 16 18  2  3  0  0  0
 17 38  1  0  0  0  0
 17 39  1  0  0  0  0
 17 40  1  0  0  0  0
 18 19  1  0  0  0  0
 18 20  1  0  0  0  0
 19 41  1  0  0  0  0
 19 42  1  0  0  0  0
 19 43  1  0  0  0  0
 20 21  2  3  0  0  0
 20 44  1  0  0  0  0
 21 45  1  0  0  0  0
M  END
$$$$
