
 OpenBabel04232216423D

 53 54  0  0  0  0  0  0  0  0999 V2000
   -1.2109   -1.1051   -2.5567 C   0  0  0  0  0  0  0  0  0  0  0  0
   -0.8040    0.3336   -2.5428 C   0  0  0  0  0  0  0  0  0  0  0  0
    0.1693    0.8971   -1.8186 C   0  0  0  0  0  0  0  0  0  0  0  0
    0.9291    0.1875   -0.8120 C   0  0  0  0  0  0  0  0  0  0  0  0
    1.1934    1.0689    0.4402 C   0  0  0  0  0  0  0  0  0  0  0  0
    1.4556   -1.0522   -1.0115 C   0  0  0  0  0  0  0  0  0  0  0  0
    2.3129   -1.5588    0.2226 C   0  0  0  0  0  0  0  0  0  0  0  0
    1.5230   -1.9063    1.4593 N   0  0  0  0  0  0  0  0  0  0  0  0
    2.3839   -2.0966    2.6420 C   0  0  0  0  0  0  0  0  0  0  0  0
    1.6152   -2.6375    3.8559 C   0  0  0  0  0  0  0  0  0  0  0  0
    1.6222   -1.7690   -2.5170 C   0  0  0  0  0  0  0  0  0  0  0  0
    2.9683   -1.9386   -2.6499 N   0  0  0  0  0  2  0  0  0  0  0  0
    3.2043   -3.2537   -2.3783 C   0  0  0  0  0  0  0  0  0  0  0  0
    4.2476   -4.0045   -2.7245 C   0  0  0  0  0  0  0  0  0  0  0  0
    3.9438   -5.4178   -2.9674 C   0  0  0  0  0  0  0  0  0  0  0  0
    4.0921   -5.8170   -4.2537 C   0  0  0  0  0  0  0  0  0  0  0  0
    2.8188   -5.7734   -4.9653 C   0  0  0  0  0  0  0  0  0  0  0  0
    2.3806   -4.5448   -5.2868 C   0  0  0  0  0  0  0  0  0  0  0  0
    1.0716   -4.0011   -5.7444 C   0  0  0  0  0  0  0  0  0  0  0  0
   -0.1489   -5.0029   -5.9762 C   0  0  0  0  0  0  0  0  0  0  0  0
    0.1176   -6.4055   -6.6362 C   0  0  0  0  0  0  0  0  0  0  0  0
    1.4923   -3.7245   -7.2796 C   0  0  0  0  0  0  0  0  0  0  0  0
    0.7661   -2.6101   -4.9275 N   0  0  0  0  0  0  0  0  0  0  0  0
    0.6248   -2.2149   -3.4590 C   0  0  0  0  0  0  0  0  0  0  0  0
   -0.6808   -2.2070   -3.0157 N   0  0  0  0  0  0  0  0  0  0  0  0
   -2.2074   -1.2350   -2.1080 H   0  0  0  0  0  0  0  0  0  0  0  0
   -1.4481    0.9668   -3.1228 H   0  0  0  0  0  0  0  0  0  0  0  0
    0.2478    1.9671   -1.8098 H   0  0  0  0  0  0  0  0  0  0  0  0
    0.7368    2.0665    0.3793 H   0  0  0  0  0  0  0  0  0  0  0  0
    2.2682    1.2721    0.5604 H   0  0  0  0  0  0  0  0  0  0  0  0
    0.8150    0.6321    1.3719 H   0  0  0  0  0  0  0  0  0  0  0  0
    3.0071   -0.7530    0.5057 H   0  0  0  0  0  0  0  0  0  0  0  0
    2.9565   -2.4072   -0.0130 H   0  0  0  0  0  0  0  0  0  0  0  0
    1.0500   -2.7803    1.2362 H   0  0  0  0  0  0  0  0  0  0  0  0
    2.8384   -1.1432    2.9425 H   0  0  0  0  0  0  0  0  0  0  0  0
    3.1971   -2.7979    2.4234 H   0  0  0  0  0  0  0  0  0  0  0  0
    0.8495   -1.9352    4.2037 H   0  0  0  0  0  0  0  0  0  0  0  0
    2.2995   -2.8090    4.6984 H   0  0  0  0  0  0  0  0  0  0  0  0
    1.1313   -3.5945    3.6350 H   0  0  0  0  0  0  0  0  0  0  0  0
    2.3887   -3.8178   -1.9098 H   0  0  0  0  0  0  0  0  0  0  0  0
    5.0496   -3.5266   -3.2888 H   0  0  0  0  0  0  0  0  0  0  0  0
    2.9930   -5.7128   -2.4993 H   0  0  0  0  0  0  0  0  0  0  0  0
    4.9115   -5.3917   -4.8366 H   0  0  0  0  0  0  0  0  0  0  0  0
    2.2223   -6.6693   -4.9664 H   0  0  0  0  0  0  0  0  0  0  0  0
    3.1007   -3.7233   -5.2159 H   0  0  0  0  0  0  0  0  0  0  0  0
   -0.8469   -4.5254   -6.6840 H   0  0  0  0  0  0  0  0  0  0  0  0
   -0.7192   -5.1567   -5.0611 H   0  0  0  0  0  0  0  0  0  0  0  0
    0.7198   -6.3695   -7.5538 H   0  0  0  0  0  0  0  0  0  0  0  0
   -0.8282   -6.8883   -6.9230 H   0  0  0  0  0  0  0  0  0  0  0  0
    0.5880   -7.1189   -5.9567 H   0  0  0  0  0  0  0  0  0  0  0  0
    0.6479   -3.7049   -7.9847 H   0  0  0  0  0  0  0  0  0  0  0  0
    2.1063   -4.5661   -7.6714 H   0  0  0  0  0  0  0  0  0  0  0  0
    2.0913   -2.8259   -7.4390 H   0  0  0  0  0  0  0  0  0  0  0  0
  1  2  1  0  0  0  0
  1 25  2  0  0  0  0
  1 26  1  0  0  0  0
  2  3  2  0  0  0  0
  2 27  1  0  0  0  0
  3  4  1  0  0  0  0
  3 28  1  0  0  0  0
  4  5  1  0  0  0  0
  4  6  2  0  0  0  0
  5 29  1  0  0  0  0
  5 30  1  0  0  0  0
  5 31  1  0  0  0  0
  6  7  1  0  0  0  0
  6 11  1  0  0  0  0
  7  8  1  0  0  0  0
  7 32  1  0  0  0  0
  7 33  1  0  0  0  0
  8  9  1  0  0  0  0
  8 34  1  0  0  0  0
  9 10  1  0  0  0  0
  9 35  1  0  0  0  0
  9 36  1  0  0  0  0
 10 37  1  0  0  0  0
 10 38  1  0  0  0  0
 10 39  1  0  0  0  0
 11 12  1  0  0  0  0
 11 24  2  0  0  0  0
 12 13  1  0  0  0  0
 13 14  2  3  0  0  0
 13 40  1  0  0  0  0
 14 15  1  0  0  0  0
 14 41  1  0  0  0  0
 15 16  2  3  0  0  0
 15 42  1  0  0  0  0
 16 17  1  0  0  0  0
 16 43  1  0  0  0  0
 17 18  2  3  0  0  0
 17 44  1  0  0  0  0
 18 19  1  0  0  0  0
 18 45  1  0  0  0  0
 19 20  1  0  0  0  0
 19 22  1  0  0  0  0
 19 23  2  0  0  0  0
 20 21  1  0  0  0  0
 20 46  1  0  0  0  0
 20 47  1  0  0  0  0
 21 48  1  0  0  0  0
 21 49  1  0  0  0  0
 21 50  1  0  0  0  0
 22 51  1  0  0  0  0
 22 52  1  0  0  0  0
 22 53  1  0  0  0  0
 23 24  1  0  0  0  0
 24 25  1  0  0  0  0
M  END
$$$$
