
 OpenBabel04232216433D

239238  0  0  1  0  0  0  0  0999 V2000
    2.9283    0.4271    1.4952 C   0  0  0  0  0  0  0  0  0  0  0  0
    2.4410    0.0778    0.0832 C   0  0  3  0  0  0  0  0  0  0  0  0
    0.9059    0.0384    0.0452 C   0  0  0  0  0  0  0  0  0  0  0  0
    0.3842   -0.3214   -1.3436 C   0  0  0  0  0  0  0  0  0  0  0  0
   -1.1317   -0.3424   -1.3553 C   0  0  0  0  0  0  0  0  0  0  0  0
   -1.6134   -0.6874   -2.7536 C   0  0  0  0  0  0  0  0  0  0  0  0
    2.9806    1.1055   -0.9175 C   0  0  0  0  0  0  0  0  0  0  0  0
    4.4984    1.1203   -0.9461 C   0  0  0  0  0  0  0  0  0  0  0  0
    4.9994    2.1500   -1.9310 C   0  0  0  0  0  0  0  0  0  0  0  0
    6.5156    2.1453   -1.9223 C   0  0  0  0  0  0  0  0  0  0  0  0
    7.0282    3.1675   -2.9141 C   0  0  0  0  0  0  0  0  0  0  0  0
    8.5433    3.1678   -2.9147 C   0  0  0  0  0  0  0  0  0  0  0  0
    9.0525    4.1937   -3.9077 C   0  0  0  0  0  0  0  0  0  0  0  0
   10.5687    4.1986   -3.9098 C   0  0  0  0  0  0  0  0  0  0  0  0
   11.0784    5.2227   -4.9034 C   0  0  0  0  0  0  0  0  0  0  0  0
   12.5954    5.2278   -4.9057 C   0  0  0  0  0  0  0  0  0  0  0  0
   13.1048    6.2540   -5.8988 C   0  0  0  0  0  0  0  0  0  0  0  0
   14.6210    6.2579   -5.9026 C   0  0  0  0  0  0  0  0  0  0  0  0
   15.1318    7.2847   -6.8934 C   0  0  0  0  0  0  0  0  0  0  0  0
   16.6470    7.2909   -6.8965 C   0  0  0  0  0  0  0  0  0  0  0  0
   17.1586    8.3184   -7.8853 C   0  0  0  0  0  0  0  0  0  0  0  0
   18.6735    8.3235   -7.8902 C   0  0  0  0  0  0  0  0  0  0  0  0
   19.1852    9.3496   -8.8804 C   0  0  0  0  0  0  0  0  0  0  0  0
   20.7001    9.3561   -8.8839 C   0  0  0  0  0  0  0  0  0  0  0  0
   21.2118   10.3836   -9.8726 C   0  0  0  0  0  0  0  0  0  0  0  0
   22.7267   10.3902   -9.8761 C   0  0  0  0  0  0  0  0  0  0  0  0
   23.2385   11.4163  -10.8662 C   0  0  0  0  0  0  0  0  0  0  0  0
   24.7534   11.4228  -10.8698 C   0  0  0  0  0  0  0  0  0  0  0  0
   25.2651   12.4489  -11.8599 C   0  0  0  0  0  0  0  0  0  0  0  0
   26.7801   12.4554  -11.8634 C   0  0  0  0  0  0  0  0  0  0  0  0
   27.2918   13.4815  -12.8536 C   0  0  0  0  0  0  0  0  0  0  0  0
   28.8067   13.4867  -12.8585 C   0  0  0  0  0  0  0  0  0  0  0  0
   29.3184   14.5127  -13.8487 C   0  0  0  0  0  0  0  0  0  0  0  0
   30.8334   14.5179  -13.8537 C   0  0  0  0  0  0  0  0  0  0  0  0
   31.3451   15.5440  -14.8439 C   0  0  0  0  0  0  0  0  0  0  0  0
   32.8600   15.5491  -14.8488 C   0  0  0  0  0  0  0  0  0  0  0  0
   33.3718   16.5766  -15.8375 C   0  0  0  0  0  0  0  0  0  0  0  0
   34.8867   16.5831  -15.8411 C   0  0  0  0  0  0  0  0  0  0  0  0
   35.3984   17.6092  -16.8312 C   0  0  0  0  0  0  0  0  0  0  0  0
   36.9134   17.6144  -16.8361 C   0  0  0  0  0  0  0  0  0  0  0  0
   37.4251   18.6418  -17.8249 C   0  0  0  0  0  0  0  0  0  0  0  0
   38.9400   18.6456  -17.8313 C   0  0  0  0  0  0  0  0  0  0  0  0
   39.4517   19.6731  -18.8200 C   0  0  0  0  0  0  0  0  0  0  0  0
   40.9667   19.6768  -18.8264 C   0  0  0  0  0  0  0  0  0  0  0  0
   41.4784   20.7043  -19.8151 C   0  0  0  0  0  0  0  0  0  0  0  0
   42.9933   20.7080  -19.8215 C   0  0  0  0  0  0  0  0  0  0  0  0
   43.5051   21.7355  -20.8102 C   0  0  0  0  0  0  0  0  0  0  0  0
   45.0200   21.7379  -20.8181 C   0  0  0  0  0  0  0  0  0  0  0  0
   45.5317   22.7667  -21.8054 C   0  0  0  0  0  0  0  0  0  0  0  0
   47.0467   22.7705  -21.8118 C   0  0  0  0  0  0  0  0  0  0  0  0
   47.5584   23.7980  -22.8005 C   0  0  0  0  0  0  0  0  0  0  0  0
   49.0733   23.8017  -22.8069 C   0  0  0  0  0  0  0  0  0  0  0  0
   49.5850   24.8306  -23.7942 C   0  0  0  0  0  0  0  0  0  0  0  0
   51.1000   24.8330  -23.8020 C   0  0  0  0  0  0  0  0  0  0  0  0
   51.6117   25.8604  -24.7907 C   0  0  0  0  0  0  0  0  0  0  0  0
   53.1266   25.8642  -24.7972 C   0  0  0  0  0  0  0  0  0  0  0  0
   53.6384   26.8916  -25.7859 C   0  0  0  0  0  0  0  0  0  0  0  0
   55.1533   26.8940  -25.7937 C   0  0  0  0  0  0  0  0  0  0  0  0
   55.6650   27.9215  -26.7824 C   0  0  0  0  0  0  0  0  0  0  0  0
   57.1799   27.9238  -26.7903 C   0  0  0  0  0  0  0  0  0  0  0  0
   57.6917   28.9513  -27.7790 C   0  0  0  0  0  0  0  0  0  0  0  0
   59.2066   28.9537  -27.7869 C   0  0  0  0  0  0  0  0  0  0  0  0
   59.7183   29.9811  -28.7756 C   0  0  0  0  0  0  0  0  0  0  0  0
   61.2333   29.9835  -28.7835 C   0  0  0  0  0  0  0  0  0  0  0  0
   61.7450   31.0109  -29.7722 C   0  0  0  0  0  0  0  0  0  0  0  0
   63.2600   31.0133  -29.7801 C   0  0  0  0  0  0  0  0  0  0  0  0
   63.7717   32.0408  -30.7688 C   0  0  0  0  0  0  0  0  0  0  0  0
   65.2866   32.0444  -30.7751 C   0  0  0  0  0  0  0  0  0  0  0  0
   65.7983   33.0722  -31.7641 C   0  0  0  0  0  0  0  0  0  0  0  0
   67.3136   33.0756  -31.7701 C   0  0  0  0  0  0  0  0  0  0  0  0
   67.8238   34.1044  -32.7601 C   0  0  0  0  0  0  0  0  0  0  0  0
   69.3407   34.1062  -32.7647 C   0  0  0  0  0  0  0  0  0  0  0  0
   69.8499   35.1364  -33.7560 C   0  0  0  0  0  0  0  0  0  0  0  0
   71.3684   35.1383  -33.7579 C   0  0  0  0  0  0  0  0  0  0  0  0
   71.8789   36.1696  -34.7502 C   0  0  0  0  0  0  0  0  0  0  0  0
   73.3981   36.1732  -34.7537 C   0  0  0  0  0  0  0  0  0  0  0  0
   73.9142   37.2073  -35.7459 C   0  0  0  0  0  0  0  0  0  0  0  0
   75.4332   37.2162  -35.7573 C   0  0  0  0  0  0  0  0  0  0  0  0
   75.9439   38.2459  -36.7454 C   0  0  0  0  0  0  0  0  0  0  0  0
    2.6076   -0.3320    2.2200 H   0  0  0  0  0  0  0  0  0  0  0  0
    2.5477    1.3977    1.8055 H   0  0  0  0  0  0  0  0  0  0  0  0
    4.0148    0.4446    1.5475 H   0  0  0  0  0  0  0  0  0  0  0  0
    2.8252   -0.9142   -0.1900 H   0  0  0  0  0  0  0  0  0  0  0  0
    0.4955    1.0182    0.3220 H   0  0  0  0  0  0  0  0  0  0  0  0
    0.5349   -0.6850    0.7771 H   0  0  0  0  0  0  0  0  0  0  0  0
    0.7722   -1.2974   -1.6546 H   0  0  0  0  0  0  0  0  0  0  0  0
    0.7193    0.4150   -2.0781 H   0  0  0  0  0  0  0  0  0  0  0  0
   -1.5338    0.6293   -1.0499 H   0  0  0  0  0  0  0  0  0  0  0  0
   -1.4946   -1.0930   -0.6437 H   0  0  0  0  0  0  0  0  0  0  0  0
   -1.2695    0.0626   -3.4749 H   0  0  0  0  0  0  0  0  0  0  0  0
   -2.7028   -0.7235   -2.7794 H   0  0  0  0  0  0  0  0  0  0  0  0
   -1.2232   -1.6617   -3.0649 H   0  0  0  0  0  0  0  0  0  0  0  0
    2.5986    2.1034   -0.6597 H   0  0  0  0  0  0  0  0  0  0  0  0
    2.6345    0.8862   -1.9305 H   0  0  0  0  0  0  0  0  0  0  0  0
    4.8811    0.1317   -1.2280 H   0  0  0  0  0  0  0  0  0  0  0  0
    4.9022    1.3594    0.0384 H   0  0  0  0  0  0  0  0  0  0  0  0
    4.6191    3.1443   -1.6685 H   0  0  0  0  0  0  0  0  0  0  0  0
    4.6301    1.9093   -2.9344 H   0  0  0  0  0  0  0  0  0  0  0  0
    6.8917    1.1481   -2.1826 H   0  0  0  0  0  0  0  0  0  0  0  0
    6.8874    2.3771   -0.9153 H   0  0  0  0  0  0  0  0  0  0  0  0
    6.6522    4.1636   -2.6494 H   0  0  0  0  0  0  0  0  0  0  0  0
    6.6525    2.9335   -3.9177 H   0  0  0  0  0  0  0  0  0  0  0  0
    8.9182    2.1713   -3.1793 H   0  0  0  0  0  0  0  0  0  0  0  0
    8.9179    3.3999   -1.9101 H   0  0  0  0  0  0  0  0  0  0  0  0
    8.6754    5.1893   -3.6432 H   0  0  0  0  0  0  0  0  0  0  0  0
    8.6775    3.9604   -4.9119 H   0  0  0  0  0  0  0  0  0  0  0  0
   10.9452    3.2019   -4.1722 H   0  0  0  0  0  0  0  0  0  0  0  0
   10.9428    4.4327   -2.9051 H   0  0  0  0  0  0  0  0  0  0  0  0
   10.7016    6.2191   -4.6408 H   0  0  0  0  0  0  0  0  0  0  0  0
   10.7040    4.9884   -5.9079 H   0  0  0  0  0  0  0  0  0  0  0  0
   12.9719    4.2320   -5.1698 H   0  0  0  0  0  0  0  0  0  0  0  0
   12.9697    5.4608   -3.9013 H   0  0  0  0  0  0  0  0  0  0  0  0
   12.7290    7.2501   -5.6337 H   0  0  0  0  0  0  0  0  0  0  0  0
   12.7291    6.0218   -6.9031 H   0  0  0  0  0  0  0  0  0  0  0  0
   14.9971    5.2618   -6.1687 H   0  0  0  0  0  0  0  0  0  0  0  0
   14.9971    6.4885   -4.8975 H   0  0  0  0  0  0  0  0  0  0  0  0
   14.7542    8.2810   -6.6282 H   0  0  0  0  0  0  0  0  0  0  0  0
   14.7565    7.0535   -7.8990 H   0  0  0  0  0  0  0  0  0  0  0  0
   17.0247    6.2946   -7.1629 H   0  0  0  0  0  0  0  0  0  0  0  0
   17.0225    7.5205   -5.8903 H   0  0  0  0  0  0  0  0  0  0  0  0
   16.7818    9.3149   -7.6181 H   0  0  0  0  0  0  0  0  0  0  0  0
   16.7818    8.0897   -8.8913 H   0  0  0  0  0  0  0  0  0  0  0  0
   19.0503    7.3267   -8.1560 H   0  0  0  0  0  0  0  0  0  0  0  0
   19.0501    8.5536   -6.8845 H   0  0  0  0  0  0  0  0  0  0  0  0
   18.8072   10.3462   -8.6154 H   0  0  0  0  0  0  0  0  0  0  0  0
   18.8096    9.1187   -9.8863 H   0  0  0  0  0  0  0  0  0  0  0  0
   21.0780    8.3599   -9.1502 H   0  0  0  0  0  0  0  0  0  0  0  0
   21.0757    9.5857   -7.8776 H   0  0  0  0  0  0  0  0  0  0  0  0
   20.8339   11.3799   -9.6063 H   0  0  0  0  0  0  0  0  0  0  0  0
   20.8362   10.1541  -10.8788 H   0  0  0  0  0  0  0  0  0  0  0  0
   23.1047    9.3935  -10.1411 H   0  0  0  0  0  0  0  0  0  0  0  0
   23.1023   10.6211   -8.8701 H   0  0  0  0  0  0  0  0  0  0  0  0
   22.8605   12.4129  -10.6013 H   0  0  0  0  0  0  0  0  0  0  0  0
   22.8629   11.1853  -11.8722 H   0  0  0  0  0  0  0  0  0  0  0  0
   25.1313   10.4262  -11.1347 H   0  0  0  0  0  0  0  0  0  0  0  0
   25.1290   11.6537   -9.8638 H   0  0  0  0  0  0  0  0  0  0  0  0
   24.8872   13.4455  -11.5950 H   0  0  0  0  0  0  0  0  0  0  0  0
   24.8896   12.2179  -12.8659 H   0  0  0  0  0  0  0  0  0  0  0  0
   27.1579   11.4588  -12.1284 H   0  0  0  0  0  0  0  0  0  0  0  0
   27.1556   12.6864  -10.8575 H   0  0  0  0  0  0  0  0  0  0  0  0
   26.9150   14.4784  -12.5878 H   0  0  0  0  0  0  0  0  0  0  0  0
   26.9151   13.2514  -13.8593 H   0  0  0  0  0  0  0  0  0  0  0  0
   29.1835   12.4898  -13.1243 H   0  0  0  0  0  0  0  0  0  0  0  0
   29.1834   13.7168  -11.8528 H   0  0  0  0  0  0  0  0  0  0  0  0
   28.9417   15.5096  -13.5829 H   0  0  0  0  0  0  0  0  0  0  0  0
   28.9417   14.2826  -14.8544 H   0  0  0  0  0  0  0  0  0  0  0  0
   31.2101   13.5210  -14.1195 H   0  0  0  0  0  0  0  0  0  0  0  0
   31.2101   14.7480  -12.8480 H   0  0  0  0  0  0  0  0  0  0  0  0
   30.9683   16.5408  -14.5780 H   0  0  0  0  0  0  0  0  0  0  0  0
   30.9684   15.3139  -15.8496 H   0  0  0  0  0  0  0  0  0  0  0  0
   33.2368   14.5526  -15.1160 H   0  0  0  0  0  0  0  0  0  0  0  0
   33.2368   15.7778  -13.8428 H   0  0  0  0  0  0  0  0  0  0  0  0
   32.9939   17.5729  -15.5712 H   0  0  0  0  0  0  0  0  0  0  0  0
   32.9961   16.3470  -16.8438 H   0  0  0  0  0  0  0  0  0  0  0  0
   35.2646   15.5865  -16.1060 H   0  0  0  0  0  0  0  0  0  0  0  0
   35.2623   16.8141  -14.8351 H   0  0  0  0  0  0  0  0  0  0  0  0
   35.0216   18.6061  -16.5654 H   0  0  0  0  0  0  0  0  0  0  0  0
   35.0217   17.3791  -17.8369 H   0  0  0  0  0  0  0  0  0  0  0  0
   37.2900   16.6179  -17.1033 H   0  0  0  0  0  0  0  0  0  0  0  0
   37.2901   17.8431  -15.8301 H   0  0  0  0  0  0  0  0  0  0  0  0
   37.0495   19.6385  -17.5568 H   0  0  0  0  0  0  0  0  0  0  0  0
   37.0472   18.4140  -18.8306 H   0  0  0  0  0  0  0  0  0  0  0  0
   39.3156   17.6489  -18.0993 H   0  0  0  0  0  0  0  0  0  0  0  0
   39.3179   18.8735  -16.8255 H   0  0  0  0  0  0  0  0  0  0  0  0
   39.0762   20.6698  -18.5520 H   0  0  0  0  0  0  0  0  0  0  0  0
   39.0738   19.4452  -19.8258 H   0  0  0  0  0  0  0  0  0  0  0  0
   41.3422   18.6801  -19.0944 H   0  0  0  0  0  0  0  0  0  0  0  0
   41.3446   19.9047  -17.8206 H   0  0  0  0  0  0  0  0  0  0  0  0
   41.1028   21.7010  -19.5471 H   0  0  0  0  0  0  0  0  0  0  0  0
   41.1005   20.4764  -20.8209 H   0  0  0  0  0  0  0  0  0  0  0  0
   43.3689   19.7113  -20.0896 H   0  0  0  0  0  0  0  0  0  0  0  0
   43.3713   20.9359  -18.8158 H   0  0  0  0  0  0  0  0  0  0  0  0
   43.1306   22.7324  -20.5414 H   0  0  0  0  0  0  0  0  0  0  0  0
   43.1260   21.5085  -21.8158 H   0  0  0  0  0  0  0  0  0  0  0  0
   45.3944   20.7413  -21.0883 H   0  0  0  0  0  0  0  0  0  0  0  0
   45.3991   21.9635  -19.8123 H   0  0  0  0  0  0  0  0  0  0  0  0
   45.1562   23.7631  -21.5360 H   0  0  0  0  0  0  0  0  0  0  0  0
   45.1537   22.5403  -22.8114 H   0  0  0  0  0  0  0  0  0  0  0  0
   47.4222   21.7738  -22.0798 H   0  0  0  0  0  0  0  0  0  0  0  0
   47.4245   22.9983  -20.8060 H   0  0  0  0  0  0  0  0  0  0  0  0
   47.1828   24.7947  -22.5324 H   0  0  0  0  0  0  0  0  0  0  0  0
   47.1805   23.5701  -23.8063 H   0  0  0  0  0  0  0  0  0  0  0  0
   49.4488   22.8054  -23.0763 H   0  0  0  0  0  0  0  0  0  0  0  0
   49.4513   24.0282  -21.8008 H   0  0  0  0  0  0  0  0  0  0  0  0
   49.2107   25.8271  -23.5239 H   0  0  0  0  0  0  0  0  0  0  0  0
   49.2060   24.6049  -24.8000 H   0  0  0  0  0  0  0  0  0  0  0  0
   51.4744   23.8361  -24.0709 H   0  0  0  0  0  0  0  0  0  0  0  0
   51.4790   25.0600  -22.7965 H   0  0  0  0  0  0  0  0  0  0  0  0
   51.2362   26.8572  -24.5227 H   0  0  0  0  0  0  0  0  0  0  0  0
   51.2338   25.6326  -25.7965 H   0  0  0  0  0  0  0  0  0  0  0  0
   53.5021   24.8674  -25.0652 H   0  0  0  0  0  0  0  0  0  0  0  0
   53.5046   26.0920  -23.7914 H   0  0  0  0  0  0  0  0  0  0  0  0
   53.2639   27.8886  -25.5170 H   0  0  0  0  0  0  0  0  0  0  0  0
   53.2593   26.6646  -26.7914 H   0  0  0  0  0  0  0  0  0  0  0  0
   55.5277   25.8971  -26.0626 H   0  0  0  0  0  0  0  0  0  0  0  0
   55.5324   27.1210  -24.7882 H   0  0  0  0  0  0  0  0  0  0  0  0
   55.2906   28.9184  -26.5136 H   0  0  0  0  0  0  0  0  0  0  0  0
   55.2859   27.6944  -27.7880 H   0  0  0  0  0  0  0  0  0  0  0  0
   57.5543   26.9269  -27.0592 H   0  0  0  0  0  0  0  0  0  0  0  0
   57.5590   28.1509  -25.7848 H   0  0  0  0  0  0  0  0  0  0  0  0
   57.3173   29.9482  -27.5102 H   0  0  0  0  0  0  0  0  0  0  0  0
   57.3126   28.7243  -28.7845 H   0  0  0  0  0  0  0  0  0  0  0  0
   59.5810   27.9567  -28.0557 H   0  0  0  0  0  0  0  0  0  0  0  0
   59.5857   29.1807  -26.7814 H   0  0  0  0  0  0  0  0  0  0  0  0
   59.3440   30.9781  -28.5067 H   0  0  0  0  0  0  0  0  0  0  0  0
   59.3392   29.7541  -29.7811 H   0  0  0  0  0  0  0  0  0  0  0  0
   61.6076   28.9865  -29.0523 H   0  0  0  0  0  0  0  0  0  0  0  0
   61.6123   30.2105  -27.7780 H   0  0  0  0  0  0  0  0  0  0  0  0
   61.3706   32.0079  -29.5033 H   0  0  0  0  0  0  0  0  0  0  0  0
   61.3659   30.7839  -30.7777 H   0  0  0  0  0  0  0  0  0  0  0  0
   63.6343   30.0164  -30.0489 H   0  0  0  0  0  0  0  0  0  0  0  0
   63.6390   31.2404  -28.7745 H   0  0  0  0  0  0  0  0  0  0  0  0
   63.3962   33.0375  -30.5008 H   0  0  0  0  0  0  0  0  0  0  0  0
   63.3937   31.8129  -31.7745 H   0  0  0  0  0  0  0  0  0  0  0  0
   65.6622   31.0479  -31.0432 H   0  0  0  0  0  0  0  0  0  0  0  0
   65.6646   32.2724  -29.7695 H   0  0  0  0  0  0  0  0  0  0  0  0
   65.4228   34.0687  -31.4959 H   0  0  0  0  0  0  0  0  0  0  0  0
   65.4205   32.8442  -32.7697 H   0  0  0  0  0  0  0  0  0  0  0  0
   67.6888   32.0795  -32.0386 H   0  0  0  0  0  0  0  0  0  0  0  0
   67.6912   33.3039  -30.7650 H   0  0  0  0  0  0  0  0  0  0  0  0
   67.4493   35.0998  -32.4914 H   0  0  0  0  0  0  0  0  0  0  0  0
   67.4469   33.8758  -33.7647 H   0  0  0  0  0  0  0  0  0  0  0  0
   69.7149   33.1111  -33.0337 H   0  0  0  0  0  0  0  0  0  0  0  0
   69.7172   34.3351  -31.7605 H   0  0  0  0  0  0  0  0  0  0  0  0
   69.4747   36.1306  -33.4872 H   0  0  0  0  0  0  0  0  0  0  0  0
   69.4746   34.9060  -34.7598 H   0  0  0  0  0  0  0  0  0  0  0  0
   71.7422   34.1445  -34.0265 H   0  0  0  0  0  0  0  0  0  0  0  0
   71.7422   35.3685  -32.7545 H   0  0  0  0  0  0  0  0  0  0  0  0
   71.5024   37.1632  -34.4810 H   0  0  0  0  0  0  0  0  0  0  0  0
   71.5025   35.9388  -35.7535 H   0  0  0  0  0  0  0  0  0  0  0  0
   73.7721   35.1781  -35.0225 H   0  0  0  0  0  0  0  0  0  0  0  0
   73.7723   36.4007  -33.7484 H   0  0  0  0  0  0  0  0  0  0  0  0
   73.5337   38.1986  -35.4731 H   0  0  0  0  0  0  0  0  0  0  0  0
   73.5314   36.9772  -36.7472 H   0  0  0  0  0  0  0  0  0  0  0  0
   75.8122   36.2244  -36.0303 H   0  0  0  0  0  0  0  0  0  0  0  0
   75.8145   37.4463  -34.7556 H   0  0  0  0  0  0  0  0  0  0  0  0
   75.5927   38.0195  -37.7568 H   0  0  0  0  0  0  0  0  0  0  0  0
   77.0369   38.2521  -36.7533 H   0  0  0  0  0  0  0  0  0  0  0  0
   75.5951   39.2475  -36.4758 H   0  0  0  0  0  0  0  0  0  0  0  0
  1  2  1  0  0  0  0
  1 80  1  0  0  0  0
  1 81  1  0  0  0  0
  1 82  1  0  0  0  0
  2  3  1  0  0  0  0
  2  7  1  0  0  0  0
  2 83  1  0  0  0  0
  3  4  1  0  0  0  0
  3 84  1  0  0  0  0
  3 85  1  0  0  0  0
  4  5  1  0  0  0  0
  4 86  1  0  0  0  0
  4 87  1  0  0  0  0
  5  6  1  0  0  0  0
  5 88  1  0  0  0  0
  5 89  1  0  0  0  0
  6 90  1  0  0  0  0
  6 91  1  0  0  0  0
  6 92  1  0  0  0  0
  7  8  1  0  0  0  0
  7 93  1  0  0  0  0
  7 94  1  0  0  0  0
  8  9  1  0  0  0  0
  8 95  1  0  0  0  0
  8 96  1  0  0  0  0
  9 10  1  0  0  0  0
  9 97  1  0  0  0  0
  9 98  1  0  0  0  0
 10 11  1  0  0  0  0
 10 99  1  0  0  0  0
 10100  1  0  0  0  0
 11 12  1  0  0  0  0
 11101  1  0  0  0  0
 11102  1  0  0  0  0
 12 13  1  0  0  0  0
 12103  1  0  0  0  0
 12104  1  0  0  0  0
 13 14  1  0  0  0  0
 13105  1  0  0  0  0
 13106  1  0  0  0  0
 14 15  1  0  0  0  0
 14107  1  0  0  0  0
 14108  1  0  0  0  0
 15 16  1  0  0  0  0
 15109  1  0  0  0  0
 15110  1  0  0  0  0
 16 17  1  0  0  0  0
 16111  1  0  0  0  0
 16112  1  0  0  0  0
 17 18  1  0  0  0  0
 17113  1  0  0  0  0
 17114  1  0  0  0  0
 18 19  1  0  0  0  0
 18115  1  0  0  0  0
 18116  1  0  0  0  0
 19 20  1  0  0  0  0
 19117  1  0  0  0  0
 19118  1  0  0  0  0
 20 21  1  0  0  0  0
 20119  1  0  0  0  0
 20120  1  0  0  0  0
 21 22  1  0  0  0  0
 21121  1  0  0  0  0
 21122  1  0  0  0  0
 22 23  1  0  0  0  0
 22123  1  0  0  0  0
 22124  1  0  0  0  0
 23 24  1  0  0  0  0
 23125  1  0  0  0  0
 23126  1  0  0  0  0
 24 25  1  0  0  0  0
 24127  1  0  0  0  0
 24128  1  0  0  0  0
 25 26  1  0  0  0  0
 25129  1  0  0  0  0
 25130  1  0  0  0  0
 26 27  1  0  0  0  0
 26131  1  0  0  0  0
 26132  1  0  0  0  0
 27 28  1  0  0  0  0
 27133  1  0  0  0  0
 27134  1  0  0  0  0
 28 29  1  0  0  0  0
 28135  1  0  0  0  0
 28136  1  0  0  0  0
 29 30  1  0  0  0  0
 29137  1  0  0  0  0
 29138  1  0  0  0  0
 30 31  1  0  0  0  0
 30139  1  0  0  0  0
 30140  1  0  0  0  0
 31 32  1  0  0  0  0
 31141  1  0  0  0  0
 31142  1  0  0  0  0
 32 33  1  0  0  0  0
 32143  1  0  0  0  0
 32144  1  0  0  0  0
 33 34  1  0  0  0  0
 33145  1  0  0  0  0
 33146  1  0  0  0  0
 34 35  1  0  0  0  0
 34147  1  0  0  0  0
 34148  1  0  0  0  0
 35 36  1  0  0  0  0
 35149  1  0  0  0  0
 35150  1  0  0  0  0
 36 37  1  0  0  0  0
 36151  1  0  0  0  0
 36152  1  0  0  0  0
 37 38  1  0  0  0  0
 37153  1  0  0  0  0
 37154  1  0  0  0  0
 38 39  1  0  0  0  0
 38155  1  0  0  0  0
 38156  1  0  0  0  0
 39 40  1  0  0  0  0
 39157  1  0  0  0  0
 39158  1  0  0  0  0
 40 41  1  0  0  0  0
 40159  1  0  0  0  0
 40160  1  0  0  0  0
 41 42  1  0  0  0  0
 41161  1  0  0  0  0
 41162  1  0  0  0  0
 42 43  1  0  0  0  0
 42163  1  0  0  0  0
 42164  1  0  0  0  0
 43 44  1  0  0  0  0
 43165  1  0  0  0  0
 43166  1  0  0  0  0
 44 45  1  0  0  0  0
 44167  1  0  0  0  0
 44168  1  0  0  0  0
 45 46  1  0  0  0  0
 45169  1  0  0  0  0
 45170  1  0  0  0  0
 46 47  1  0  0  0  0
 46171  1  0  0  0  0
 46172  1  0  0  0  0
 47 48  1  0  0  0  0
 47173  1  0  0  0  0
 47174  1  0  0  0  0
 48 49  1  0  0  0  0
 48175  1  0  0  0  0
 48176  1  0  0  0  0
 49 50  1  0  0  0  0
 49177  1  0  0  0  0
 49178  1  0  0  0  0
 50 51  1  0  0  0  0
 50179  1  0  0  0  0
 50180  1  0  0  0  0
 51 52  1  0  0  0  0
 51181  1  0  0  0  0
 51182  1  0  0  0  0
 52 53  1  0  0  0  0
 52183  1  0  0  0  0
 52184  1  0  0  0  0
 53 54  1  0  0  0  0
 53185  1  0  0  0  0
 53186  1  0  0  0  0
 54 55  1  0  0  0  0
 54187  1  0  0  0  0
 54188  1  0  0  0  0
 55 56  1  0  0  0  0
 55189  1  0  0  0  0
 55190  1  0  0  0  0
 56 57  1  0  0  0  0
 56191  1  0  0  0  0
 56192  1  0  0  0  0
 57 58  1  0  0  0  0
 57193  1  0  0  0  0
 57194  1  0  0  0  0
 58 59  1  0  0  0  0
 58195  1  0  0  0  0
 58196  1  0  0  0  0
 59 60  1  0  0  0  0
 59197  1  0  0  0  0
 59198  1  0  0  0  0
 60 61  1  0  0  0  0
 60199  1  0  0  0  0
 60200  1  0  0  0  0
 61 62  1  0  0  0  0
 61201  1  0  0  0  0
 61202  1  0  0  0  0
 62 63  1  0  0  0  0
 62203  1  0  0  0  0
 62204  1  0  0  0  0
 63 64  1  0  0  0  0
 63205  1  0  0  0  0
 63206  1  0  0  0  0
 64 65  1  0  0  0  0
 64207  1  0  0  0  0
 64208  1  0  0  0  0
 65 66  1  0  0  0  0
 65209  1  0  0  0  0
 65210  1  0  0  0  0
 66 67  1  0  0  0  0
 66211  1  0  0  0  0
 66212  1  0  0  0  0
 67 68  1  0  0  0  0
 67213  1  0  0  0  0
 67214  1  0  0  0  0
 68 69  1  0  0  0  0
 68215  1  0  0  0  0
 68216  1  0  0  0  0
 69 70  1  0  0  0  0
 69217  1  0  0  0  0
 69218  1  0  0  0  0
 70 71  1  0  0  0  0
 70219  1  0  0  0  0
 70220  1  0  0  0  0
 71 72  1  0  0  0  0
 71221  1  0  0  0  0
 71222  1  0  0  0  0
 72 73  1  0  0  0  0
 72223  1  0  0  0  0
 72224  1  0  0  0  0
 73 74  1  0  0  0  0
 73225  1  0  0  0  0
 73226  1  0  0  0  0
 74 75  1  0  0  0  0
 74227  1  0  0  0  0
 74228  1  0  0  0  0
 75 76  1  0  0  0  0
 75229  1  0  0  0  0
 75230  1  0  0  0  0
 76 77  1  0  0  0  0
 76231  1  0  0  0  0
 76232  1  0  0  0  0
 77 78  1  0  0  0  0
 77233  1  0  0  0  0
 77234  1  0  0  0  0
 78 79  1  0  0  0  0
 78235  1  0  0  0  0
 78236  1  0  0  0  0
 79237  1  0  0  0  0
 79238  1  0  0  0  0
 79239  1  0  0  0  0
M  END
$$$$
