
 OpenBabel04232217003D

 89 88  0  0  1  0  0  0  0  0999 V2000
    0.9263   -2.4226    0.7176 O   0  0  0  0  0  0  0  0  0  0  0  0
    2.3318   -2.2988    0.6404 C   0  0  0  0  0  0  0  0  0  0  0  0
    2.7624   -1.1826   -0.3277 C   0  0  3  0  0  0  0  0  0  0  0  0
    2.2328    0.1749    0.0816 C   0  0  0  0  0  0  0  0  0  0  0  0
    4.2961   -1.1109   -0.4246 C   0  0  0  0  0  0  0  0  0  0  0  0
    4.8121   -2.3283   -0.9528 O   0  0  0  0  0  0  0  0  0  0  0  0
    6.1521   -2.4086   -0.4008 O   0  0  0  0  0  0  0  0  0  0  0  0
    6.7311   -3.7038   -0.6641 O   0  0  0  0  0  0  0  0  0  0  0  0
    7.8119   -3.5733   -1.6160 O   0  0  0  0  0  0  0  0  0  0  0  0
    8.3868   -4.8666   -1.8999 O   0  0  0  0  0  0  0  0  0  0  0  0
    9.5304   -5.1069   -1.0457 O   0  0  0  0  0  0  0  0  0  0  0  0
   10.2100   -6.3148   -1.4552 O   0  0  0  0  0  0  0  0  0  0  0  0
   11.3353   -5.9983   -2.3082 O   0  0  0  0  0  0  0  0  0  0  0  0
   12.0745   -7.2006   -2.6195 O   0  0  0  0  0  0  0  0  0  0  0  0
   13.1293   -7.4107   -1.6502 O   0  0  0  0  0  0  0  0  0  0  0  0
   13.8943   -8.5862   -1.9982 O   0  0  0  0  0  0  0  0  0  0  0  0
   14.8521   -8.2701   -3.0373 O   0  0  0  0  0  0  0  0  0  0  0  0
   15.5872   -9.4551   -3.4142 O   0  0  0  0  0  0  0  0  0  0  0  0
   16.6054   -9.7307   -2.4251 O   0  0  0  0  0  0  0  0  0  0  0  0
   17.2351  -10.9991   -2.6857 O   0  0  0  0  0  0  0  0  0  0  0  0
   18.4158  -10.8058   -3.4932 O   0  0  0  0  0  0  0  0  0  0  0  0
   18.8016  -12.0549   -4.0867 O   0  0  0  0  0  0  0  0  0  0  0  0
   20.1061  -12.4590   -3.6305 O   0  0  0  0  0  0  0  0  0  0  0  0
   20.6754  -13.3499   -4.6099 O   0  0  0  0  0  0  0  0  0  0  0  0
   22.1051  -13.3528   -4.5117 O   0  0  0  0  0  0  0  0  0  0  0  0
   22.5257  -14.4763   -3.7119 O   0  0  0  0  0  0  0  0  0  0  0  0
   23.9368  -14.6806   -3.8584 O   0  0  0  0  0  0  0  0  0  0  0  0
   24.1891  -15.4799   -5.0278 O   0  0  0  0  0  0  0  0  0  0  0  0
   25.5882  -15.5093   -5.2921 O   0  0  0  0  0  0  0  0  0  0  0  0
   26.1607  -16.7305   -4.8275 O   0  0  0  0  0  0  0  0  0  0  0  0
   27.5340  -16.6880   -5.1895 O   0  0  0  0  0  0  0  0  0  0  0  0
   27.9634  -17.9399   -5.6903 O   0  0  0  0  0  0  0  0  0  0  0  0
   29.1038  -18.3124   -4.9204 O   0  0  0  0  0  0  0  0  0  0  0  0
   29.6369  -19.5226   -5.4299 O   0  0  0  0  0  0  0  0  0  0  0  0
   30.7466  -19.2257   -6.2746 O   0  0  0  0  0  0  0  0  0  0  0  0
   31.3505  -20.4478   -6.6316 O   0  0  0  0  0  0  0  0  0  0  0  0
   32.7277  -20.4701   -6.2716 O   0  0  0  0  0  0  0  0  0  0  0  0
   33.1414  -21.7938   -6.5427 O   0  0  0  0  0  0  0  0  0  0  0  0
   34.4905  -22.0291   -6.2107 O   0  0  0  0  0  0  0  0  0  0  0  0
   34.9074  -23.0876   -7.0676 O   0  0  0  0  0  0  0  0  0  0  0  0
   36.2578  -22.9058   -7.4444 O   0  0  0  0  0  0  0  0  0  0  0  0
   37.0029  -24.0256   -6.9682 O   0  0  0  0  0  0  0  0  0  0  0  0
   38.3336  -23.9189   -7.4632 O   0  0  0  0  0  0  0  0  0  0  0  0
   38.7702  -25.1790   -7.9709 O   0  0  0  0  0  0  0  0  0  0  0  0
   39.8672  -25.6344   -7.1687 O   0  0  0  0  0  0  0  0  0  0  0  0
   40.4483  -26.8034   -7.7555 O   0  0  0  0  0  0  0  0  0  0  0  0
   41.5309  -26.4418   -8.6378 O   0  0  0  0  0  0  0  0  0  0  0  0
   42.2904  -27.6223   -8.9607 O   0  0  0  0  0  0  0  0  0  0  0  0
   43.2429  -27.9049   -7.9103 O   0  0  0  0  0  0  0  0  0  0  0  0
   44.0428  -29.0462   -8.2764 O   0  0  0  0  0  0  0  0  0  0  0  0
   44.9791  -28.6754   -9.3148 O   0  0  0  0  0  0  0  0  0  0  0  0
   45.7645  -29.8179   -9.7074 O   0  0  0  0  0  0  0  0  0  0  0  0
   46.7986  -30.0625   -8.7265 O   0  0  0  0  0  0  0  0  0  0  0  0
   47.2932  -31.4119   -8.8479 O   0  0  0  0  0  0  0  0  0  0  0  0
   48.3135  -31.4708   -9.8727 O   0  0  0  0  0  0  0  0  0  0  0  0
   48.7239  -32.8385  -10.0831 O   0  0  0  0  0  0  0  0  0  0  0  0
   50.0646  -33.0510   -9.5834 O   0  0  0  0  0  0  0  0  0  0  0  0
   50.9506  -33.3910  -10.6783 O   0  0  0  0  0  0  0  0  0  0  0  0
   52.3301  -33.2016  -10.2885 O   0  0  0  0  0  0  0  0  0  0  0  0
   52.9714  -34.4774  -10.0392 O   0  0  0  0  0  0  0  0  0  0  0  0
   54.0153  -34.7148  -11.0170 O   0  0  0  0  0  0  0  0  0  0  0  0
   54.1577  -36.1331  -11.2734 O   0  0  0  0  0  0  0  0  0  0  0  0
   55.3276  -36.6609  -10.5962 O   0  0  0  0  0  0  0  0  0  0  0  0
   56.3605  -36.9880  -11.5599 O   0  0  0  0  0  0  0  0  0  0  0  0
   57.6414  -37.1457  -10.9008 O   0  0  0  0  0  0  0  0  0  0  0  0
   58.1907  -38.4606  -11.1666 O   0  0  0  0  0  0  0  0  0  0  0  0
   59.1865  -38.3860  -12.2194 O   0  0  0  0  0  0  0  0  0  0  0  0
   59.7683  -39.6914  -12.4584 O   0  0  0  0  0  0  0  0  0  0  0  0
   60.9093  -39.9043  -11.5883 O   0  0  0  0  0  0  0  0  0  0  0  0
   61.6072  -41.1223  -11.9525 O   0  0  0  0  0  0  0  0  0  0  0  0
   62.7359  -40.8230  -12.8126 O   0  0  0  0  0  0  0  0  0  0  0  0
   63.4352  -42.0399  -13.1832 O   0  0  0  0  0  0  0  0  0  0  0  0
   64.6279  -42.2076  -12.3734 O   0  0  0  0  0  0  0  0  0  0  0  0
   65.2292  -43.5089  -12.6037 O   0  0  0  0  0  0  0  0  0  0  0  0
   66.4556  -43.3792  -13.3735 O   0  0  0  0  0  0  0  0  0  0  0  0
   66.9944  -44.6887  -13.6915 O   0  0  0  0  0  0  0  0  0  0  0  0
   68.3631  -44.8264  -13.2221 O   0  0  0  0  0  0  0  0  0  0  0  0
   69.0098  -45.9299  -13.9124 O   0  0  0  0  0  0  0  0  0  0  0  0
   70.4363  -45.7097  -14.0386 O   0  0  0  0  0  0  0  0  0  0  0  0
    0.6837   -3.1704    1.2970 H   0  0  0  0  0  0  0  0  0  0  0  0
    2.7090   -3.2718    0.3096 H   0  0  0  0  0  0  0  0  0  0  0  0
    2.6896   -2.1238    1.6623 H   0  0  0  0  0  0  0  0  0  0  0  0
    2.3507   -1.4235   -1.3132 H   0  0  0  0  0  0  0  0  0  0  0  0
    2.5959    0.4666    1.0817 H   0  0  0  0  0  0  0  0  0  0  0  0
    1.1296    0.1977    0.1101 H   0  0  0  0  0  0  0  0  0  0  0  0
    2.5553    0.9481   -0.6165 H   0  0  0  0  0  0  0  0  0  0  0  0
    4.7323   -0.9213    0.5621 H   0  0  0  0  0  0  0  0  0  0  0  0
    4.6038   -0.3022   -1.0890 H   0  0  0  0  0  0  0  0  0  0  0  0
   70.6889  -46.6266  -13.8320 H   0  0  0  0  0  0  0  0  0  0  0  0
  1  2  1  0  0  0  0
  1 80  1  0  0  0  0
  2  3  1  0  0  0  0
  2 81  1  0  0  0  0
  2 82  1  0  0  0  0
  3  4  1  0  0  0  0
  3  5  1  0  0  0  0
  3 83  1  0  0  0  0
  4 84  1  0  0  0  0
  4 85  1  0  0  0  0
  4 86  1  0  0  0  0
  5  6  1  0  0  0  0
  5 87  1  0  0  0  0
  5 88  1  0  0  0  0
  6  7  1  0  0  0  0
  7  8  1  0  0  0  0
  8  9  1  0  0  0  0
  9 10  1  0  0  0  0
 10 11  1  0  0  0  0
 11 12  1  0  0  0  0
 12 13  1  0  0  0  0
 13 14  1  0  0  0  0
 14 15  1  0  0  0  0
 15 16  1  0  0  0  0
 16 17  1  0  0  0  0
 17 18  1  0  0  0  0
 18 19  1  0  0  0  0
 19 20  1  0  0  0  0
 20 21  1  0  0  0  0
 21 22  1  0  0  0  0
 22 23  1  0  0  0  0
 23 24  1  0  0  0  0
 24 25  1  0  0  0  0
 25 26  1  0  0  0  0
 26 27  1  0  0  0  0
 27 28  1  0  0  0  0
 28 29  1  0  0  0  0
 29 30  1  0  0  0  0
 30 31  1  0  0  0  0
 31 32  1  0  0  0  0
 32 33  1  0  0  0  0
 33 34  1  0  0  0  0
 34 35  1  0  0  0  0
 35 36  1  0  0  0  0
 36 37  1  0  0  0  0
 37 38  1  0  0  0  0
 38 39  1  0  0  0  0
 39 40  1  0  0  0  0
 40 41  1  0  0  0  0
 41 42  1  0  0  0  0
 42 43  1  0  0  0  0
 43 44  1  0  0  0  0
 44 45  1  0  0  0  0
 45 46  1  0  0  0  0
 46 47  1  0  0  0  0
 47 48  1  0  0  0  0
 48 49  1  0  0  0  0
 49 50  1  0  0  0  0
 50 51  1  0  0  0  0
 51 52  1  0  0  0  0
 52 53  1  0  0  0  0
 53 54  1  0  0  0  0
 54 55  1  0  0  0  0
 55 56  1  0  0  0  0
 56 57  1  0  0  0  0
 57 58  1  0  0  0  0
 58 59  1  0  0  0  0
 59 60  1  0  0  0  0
 60 61  1  0  0  0  0
 61 62  1  0  0  0  0
 62 63  1  0  0  0  0
 63 64  1  0  0  0  0
 64 65  1  0  0  0  0
 65 66  1  0  0  0  0
 66 67  1  0  0  0  0
 67 68  1  0  0  0  0
 68 69  1  0  0  0  0
 69 70  1  0  0  0  0
 70 71  1  0  0  0  0
 71 72  1  0  0  0  0
 72 73  1  0  0  0  0
 73 74  1  0  0  0  0
 74 75  1  0  0  0  0
 75 76  1  0  0  0  0
 76 77  1  0  0  0  0
 77 78  1  0  0  0  0
 78 79  1  0  0  0  0
 79 89  1  0  0  0  0
M  END
$$$$
