
 OpenBabel04232216593D

 86 85  0  0  0  0  0  0  0  0999 V2000
    2.7246    0.8908   -0.6586 O   0  0  0  0  0  0  0  0  0  0  0  0
    2.1400    0.0092   -0.0473 C   0  0  0  0  0  0  0  0  0  0  0  0
    0.6280   -0.0438   -0.0089 C   0  0  0  0  0  0  0  0  0  0  0  0
    2.8323   -1.0768    0.7041 C   0  0  0  0  0  0  0  0  0  0  0  0
    4.2960   -0.8722    0.5608 C   0  0  0  0  0  0  0  0  0  0  0  0
    4.8462   -1.9301    1.2935 O   0  0  0  0  0  0  0  0  0  0  0  0
    6.2220   -1.6934    1.1276 O   0  0  0  0  0  0  0  0  0  0  0  0
    6.9160   -2.6889    1.8122 O   0  0  0  0  0  0  0  0  0  0  0  0
    8.2715   -2.4258    1.6323 O   0  0  0  0  0  0  0  0  0  0  0  0
    8.9619   -3.4160    2.3165 O   0  0  0  0  0  0  0  0  0  0  0  0
   10.3117   -3.1603    2.1385 O   0  0  0  0  0  0  0  0  0  0  0  0
   10.9783   -4.1564    2.8252 O   0  0  0  0  0  0  0  0  0  0  0  0
   12.3255   -3.9109    2.6563 O   0  0  0  0  0  0  0  0  0  0  0  0
   12.9752   -4.9124    3.3467 O   0  0  0  0  0  0  0  0  0  0  0  0
   14.3207   -4.6724    3.1812 O   0  0  0  0  0  0  0  0  0  0  0  0
   14.9470   -5.6786    3.8750 O   0  0  0  0  0  0  0  0  0  0  0  0
   16.2995   -5.4389    3.7097 O   0  0  0  0  0  0  0  0  0  0  0  0
   16.9327   -6.4370    4.3980 O   0  0  0  0  0  0  0  0  0  0  0  0
   18.2675   -6.1838    4.2233 O   0  0  0  0  0  0  0  0  0  0  0  0
   18.9105   -7.1772    4.9082 O   0  0  0  0  0  0  0  0  0  0  0  0
   20.2348   -6.9217    4.7321 O   0  0  0  0  0  0  0  0  0  0  0  0
   20.8686   -7.9214    5.4214 O   0  0  0  0  0  0  0  0  0  0  0  0
   22.2103   -7.6667    5.2457 O   0  0  0  0  0  0  0  0  0  0  0  0
   22.8362   -8.6622    5.9321 O   0  0  0  0  0  0  0  0  0  0  0  0
   24.1715   -8.4201    5.7652 O   0  0  0  0  0  0  0  0  0  0  0  0
   24.7981   -9.4150    6.4512 O   0  0  0  0  0  0  0  0  0  0  0  0
   26.1304   -9.1714    6.2832 O   0  0  0  0  0  0  0  0  0  0  0  0
   26.7579  -10.1582    6.9636 O   0  0  0  0  0  0  0  0  0  0  0  0
   28.0809   -9.9077    6.7909 O   0  0  0  0  0  0  0  0  0  0  0  0
   28.7195  -10.9067    7.4797 O   0  0  0  0  0  0  0  0  0  0  0  0
   30.0406  -10.6553    7.3061 O   0  0  0  0  0  0  0  0  0  0  0  0
   30.6753  -11.6467    7.9899 O   0  0  0  0  0  0  0  0  0  0  0  0
   32.0070  -11.3980    7.8185 O   0  0  0  0  0  0  0  0  0  0  0  0
   32.6349  -12.3849    8.4989 O   0  0  0  0  0  0  0  0  0  0  0  0
   33.9631  -12.1339    8.3258 O   0  0  0  0  0  0  0  0  0  0  0  0
   34.5915  -13.1285    9.0116 O   0  0  0  0  0  0  0  0  0  0  0  0
   35.9196  -12.8761    8.8375 O   0  0  0  0  0  0  0  0  0  0  0  0
   36.5502  -13.8711    9.5236 O   0  0  0  0  0  0  0  0  0  0  0  0
   37.8773  -13.6165    9.3480 O   0  0  0  0  0  0  0  0  0  0  0  0
   38.5085  -14.6106   10.0334 O   0  0  0  0  0  0  0  0  0  0  0  0
   39.8360  -14.3563    9.8581 O   0  0  0  0  0  0  0  0  0  0  0  0
   40.4649  -15.3514   10.5443 O   0  0  0  0  0  0  0  0  0  0  0  0
   41.7928  -15.1009   10.3715 O   0  0  0  0  0  0  0  0  0  0  0  0
   42.4179  -16.0983   11.0592 O   0  0  0  0  0  0  0  0  0  0  0  0
   43.7467  -15.8512   10.8888 O   0  0  0  0  0  0  0  0  0  0  0  0
   44.3689  -16.8498   11.5774 O   0  0  0  0  0  0  0  0  0  0  0  0
   45.6989  -16.6014   11.4061 O   0  0  0  0  0  0  0  0  0  0  0  0
   46.3266  -17.5976   12.0930 O   0  0  0  0  0  0  0  0  0  0  0  0
   47.6533  -17.3405   11.9157 O   0  0  0  0  0  0  0  0  0  0  0  0
   48.2920  -18.3321   12.5994 O   0  0  0  0  0  0  0  0  0  0  0  0
   49.6178  -18.0697   12.4185 O   0  0  0  0  0  0  0  0  0  0  0  0
   50.2556  -19.0605   13.1016 O   0  0  0  0  0  0  0  0  0  0  0  0
   51.5824  -18.8042   12.9249 O   0  0  0  0  0  0  0  0  0  0  0  0
   52.2121  -19.8006   13.6119 O   0  0  0  0  0  0  0  0  0  0  0  0
   53.5421  -19.5504   13.4394 O   0  0  0  0  0  0  0  0  0  0  0  0
   54.1693  -20.5472   14.1267 O   0  0  0  0  0  0  0  0  0  0  0  0
   55.4995  -20.2995   13.9559 O   0  0  0  0  0  0  0  0  0  0  0  0
   56.1302  -21.2952   14.6424 O   0  0  0  0  0  0  0  0  0  0  0  0
   57.4627  -21.0477   14.4718 O   0  0  0  0  0  0  0  0  0  0  0  0
   58.0958  -22.0430   15.1580 O   0  0  0  0  0  0  0  0  0  0  0  0
   59.4252  -21.7893   14.9831 O   0  0  0  0  0  0  0  0  0  0  0  0
   60.0728  -22.7878   15.6715 O   0  0  0  0  0  0  0  0  0  0  0  0
   61.3999  -22.5325   15.4955 O   0  0  0  0  0  0  0  0  0  0  0  0
   62.0454  -23.5234   16.1788 O   0  0  0  0  0  0  0  0  0  0  0  0
   63.3833  -23.2776   16.0093 O   0  0  0  0  0  0  0  0  0  0  0  0
   64.0248  -24.2764   16.6979 O   0  0  0  0  0  0  0  0  0  0  0  0
   65.3682  -24.0371   16.5329 O   0  0  0  0  0  0  0  0  0  0  0  0
   66.0142  -25.0397   17.2242 O   0  0  0  0  0  0  0  0  0  0  0  0
   67.3641  -24.7991   17.0583 O   0  0  0  0  0  0  0  0  0  0  0  0
   68.0243  -25.8011   17.7498 O   0  0  0  0  0  0  0  0  0  0  0  0
   69.3844  -25.5656   17.5858 O   0  0  0  0  0  0  0  0  0  0  0  0
   70.0503  -26.5754   18.2779 O   0  0  0  0  0  0  0  0  0  0  0  0
   71.4245  -26.3478   18.1406 O   0  0  0  0  0  0  0  0  0  0  0  0
   72.0941  -27.3654   18.8453 O   0  0  0  0  0  0  0  0  0  0  0  0
   73.4789  -27.2257   18.6069 O   0  0  0  0  0  0  0  0  0  0  0  0
   74.1849  -28.2145   19.3541 O   0  0  0  0  0  0  0  0  0  0  0  0
   75.5895  -27.9401   19.2687 O   0  0  0  0  0  0  0  0  0  0  0  0
   75.8628  -26.6167   19.7879 O   0  0  0  0  0  0  0  0  0  0  0  0
    0.2459    0.7876   -0.5843 H   0  0  0  0  0  0  0  0  0  0  0  0
    0.3048    0.0323    1.0282 H   0  0  0  0  0  0  0  0  0  0  0  0
    0.3031   -0.9876   -0.4444 H   0  0  0  0  0  0  0  0  0  0  0  0
    2.5588   -2.0616    0.3124 H   0  0  0  0  0  0  0  0  0  0  0  0
    2.5604   -1.0562    1.7640 H   0  0  0  0  0  0  0  0  0  0  0  0
    4.6409    0.0777    0.9889 H   0  0  0  0  0  0  0  0  0  0  0  0
    4.6394   -0.9396   -0.4794 H   0  0  0  0  0  0  0  0  0  0  0  0
   76.7975  -26.6178   19.5331 H   0  0  0  0  0  0  0  0  0  0  0  0
  1  2  2  0  0  0  0
  2  3  1  0  0  0  0
  2  4  1  0  0  0  0
  3 79  1  0  0  0  0
  3 80  1  0  0  0  0
  3 81  1  0  0  0  0
  4  5  1  0  0  0  0
  4 82  1  0  0  0  0
  4 83  1  0  0  0  0
  5  6  1  0  0  0  0
  5 84  1  0  0  0  0
  5 85  1  0  0  0  0
  6  7  1  0  0  0  0
  7  8  1  0  0  0  0
  8  9  1  0  0  0  0
  9 10  1  0  0  0  0
 10 11  1  0  0  0  0
 11 12  1  0  0  0  0
 12 13  1  0  0  0  0
 13 14  1  0  0  0  0
 14 15  1  0  0  0  0
 15 16  1  0  0  0  0
 16 17  1  0  0  0  0
 17 18  1  0  0  0  0
 18 19  1  0  0  0  0
 19 20  1  0  0  0  0
 20 21  1  0  0  0  0
 21 22  1  0  0  0  0
 22 23  1  0  0  0  0
 23 24  1  0  0  0  0
 24 25  1  0  0  0  0
 25 26  1  0  0  0  0
 26 27  1  0  0  0  0
 27 28  1  0  0  0  0
 28 29  1  0  0  0  0
 29 30  1  0  0  0  0
 30 31  1  0  0  0  0
 31 32  1  0  0  0  0
 32 33  1  0  0  0  0
 33 34  1  0  0  0  0
 34 35  1  0  0  0  0
 35 36  1  0  0  0  0
 36 37  1  0  0  0  0
 37 38  1  0  0  0  0
 38 39  1  0  0  0  0
 39 40  1  0  0  0  0
 40 41  1  0  0  0  0
 41 42  1  0  0  0  0
 42 43  1  0  0  0  0
 43 44  1  0  0  0  0
 44 45  1  0  0  0  0
 45 46  1  0  0  0  0
 46 47  1  0  0  0  0
 47 48  1  0  0  0  0
 48 49  1  0  0  0  0
 49 50  1  0  0  0  0
 50 51  1  0  0  0  0
 51 52  1  0  0  0  0
 52 53  1  0  0  0  0
 53 54  1  0  0  0  0
 54 55  1  0  0  0  0
 55 56  1  0  0  0  0
 56 57  1  0  0  0  0
 57 58  1  0  0  0  0
 58 59  1  0  0  0  0
 59 60  1  0  0  0  0
 60 61  1  0  0  0  0
 61 62  1  0  0  0  0
 62 63  1  0  0  0  0
 63 64  1  0  0  0  0
 64 65  1  0  0  0  0
 65 66  1  0  0  0  0
 66 67  1  0  0  0  0
 67 68  1  0  0  0  0
 68 69  1  0  0  0  0
 69 70  1  0  0  0  0
 70 71  1  0  0  0  0
 71 72  1  0  0  0  0
 72 73  1  0  0  0  0
 73 74  1  0  0  0  0
 74 75  1  0  0  0  0
 75 76  1  0  0  0  0
 76 77  1  0  0  0  0
 77 78  1  0  0  0  0
 78 86  1  0  0  0  0
M  END
$$$$
