
 OpenBabel04232216503D

 60 61  0  0  1  0  0  0  0  0999 V2000
    6.6994    4.6288    0.7905 C   0  0  0  0  0  0  0  0  0  0  0  0
    7.2379    4.6527    2.4121 C   0  0  3  0  0  0  0  0  0  0  0  0
    5.6116    3.8654    2.8987 C   0  0  0  0  0  0  0  0  0  0  0  0
    5.1195    2.2992    2.3444 C   0  0  0  0  0  0  0  0  0  0  0  0
    5.4677    1.1592    3.3243 C   0  0  0  0  0  0  0  0  0  0  0  0
    6.9000    0.9667    3.1864 C   0  0  0  0  0  0  0  0  0  0  0  0
    7.4576    1.9097    4.1863 C   0  0  0  0  0  0  0  0  0  0  0  0
    8.8828    1.9647    3.9050 C   0  0  0  0  0  0  0  0  0  0  0  0
    9.2747    2.8369    5.0753 C   0  0  0  0  0  0  0  0  0  0  0  0
   10.7285    2.7334    4.9538 C   0  0  0  0  0  0  0  0  0  0  0  0
   11.1603    3.1555    6.3203 C   0  0  0  0  0  0  0  0  0  0  0  0
   12.5059    2.6507    6.3681 N   0  0  0  0  0  0  0  0  0  0  0  0
   13.2872    3.6984    6.9268 C   0  0  0  0  0  0  0  0  0  0  0  0
   13.6211    4.6497    5.6856 C   0  0  0  0  0  0  0  0  0  0  0  0
   14.6876    4.6082    5.0863 O   0  0  0  0  0  0  0  0  0  0  0  0
   12.5930    5.7884    5.5005 C   0  0  0  0  0  0  0  0  0  0  0  0
   11.6182    5.6568    4.4343 C   0  0  0  0  0  0  0  0  0  0  0  0
    9.9946    6.1509    4.0991 C   0  0  0  0  0  0  0  0  0  0  0  0
   10.1251    7.6581    4.9583 C   0  0  0  0  0  0  0  0  0  0  0  0
    9.2087    8.4644    4.7074 O   0  0  0  0  0  0  0  0  0  0  0  0
   11.5930    8.3516    5.7580 C   0  0  0  0  0  0  0  0  0  0  0  0
   12.4243    8.5708    7.1793 C   0  0  0  0  0  0  0  0  0  0  0  0
   13.5232    7.6036    7.4476 C   0  0  0  0  0  0  0  0  0  0  0  0
   12.9462    6.3161    7.0047 C   0  0  0  0  0  0  0  0  0  0  0  0
    8.8901    5.2860    3.2061 C   0  0  0  0  0  0  0  0  0  0  0  0
    5.8886    3.8665    0.6722 H   0  0  0  0  0  0  0  0  0  0  0  0
    7.3938    4.1982    0.0574 H   0  0  0  0  0  0  0  0  0  0  0  0
    6.1264    5.4897    0.4578 H   0  0  0  0  0  0  0  0  0  0  0  0
    7.6968    3.6609    2.3196 H   0  0  0  0  0  0  0  0  0  0  0  0
    5.3813    3.9357    3.9543 H   0  0  0  0  0  0  0  0  0  0  0  0
    4.8152    4.4428    2.4005 H   0  0  0  0  0  0  0  0  0  0  0  0
    5.5273    2.0163    1.3640 H   0  0  0  0  0  0  0  0  0  0  0  0
    4.0259    2.2170    2.2122 H   0  0  0  0  0  0  0  0  0  0  0  0
    4.9782    0.1835    3.1661 H   0  0  0  0  0  0  0  0  0  0  0  0
    5.1596    1.4703    4.3279 H   0  0  0  0  0  0  0  0  0  0  0  0
    7.2943    1.2575    2.1371 H   0  0  0  0  0  0  0  0  0  0  0  0
    7.2869   -0.0237    3.3440 H   0  0  0  0  0  0  0  0  0  0  0  0
    7.2277    1.5171    5.1904 H   0  0  0  0  0  0  0  0  0  0  0  0
    7.0375    2.9096    4.2112 H   0  0  0  0  0  0  0  0  0  0  0  0
    9.1462    2.4771    2.8915 H   0  0  0  0  0  0  0  0  0  0  0  0
    9.3218    1.0297    3.9007 H   0  0  0  0  0  0  0  0  0  0  0  0
    8.9105    2.3265    6.0287 H   0  0  0  0  0  0  0  0  0  0  0  0
    8.8841    3.8358    5.1045 H   0  0  0  0  0  0  0  0  0  0  0  0
   11.1043    3.3187    4.1196 H   0  0  0  0  0  0  0  0  0  0  0  0
   11.0427    1.7177    4.7657 H   0  0  0  0  0  0  0  0  0  0  0  0
   10.5743    2.7282    7.1249 H   0  0  0  0  0  0  0  0  0  0  0  0
   10.9710    4.2399    6.3948 H   0  0  0  0  0  0  0  0  0  0  0  0
   12.8790    2.5029    5.4232 H   0  0  0  0  0  0  0  0  0  0  0  0
   14.1419    3.3710    7.4948 H   0  0  0  0  0  0  0  0  0  0  0  0
   12.6510    4.1816    7.7124 H   0  0  0  0  0  0  0  0  0  0  0  0
   11.9686    5.0824    3.5604 H   0  0  0  0  0  0  0  0  0  0  0  0
   12.3913    8.3310    5.0076 H   0  0  0  0  0  0  0  0  0  0  0  0
   11.2279    9.3839    5.7725 H   0  0  0  0  0  0  0  0  0  0  0  0
   11.8026    8.6124    8.0842 H   0  0  0  0  0  0  0  0  0  0  0  0
   12.9642    9.5342    7.1540 H   0  0  0  0  0  0  0  0  0  0  0  0
   13.7481    7.5249    8.5572 H   0  0  0  0  0  0  0  0  0  0  0  0
   14.5484    7.8366    7.0698 H   0  0  0  0  0  0  0  0  0  0  0  0
   12.0764    6.1092    7.6610 H   0  0  0  0  0  0  0  0  0  0  0  0
   13.7862    5.7416    7.4340 H   0  0  0  0  0  0  0  0  0  0  0  0
    9.5115    4.5522    2.7013 H   0  0  0  0  0  0  0  0  0  0  0  0
  1  2  1  0  0  0  0
  1 26  1  0  0  0  0
  1 27  1  0  0  0  0
  1 28  1  0  0  0  0
  2  3  1  0  0  0  0
  2 25  1  0  0  0  0
  2 29  1  0  0  0  0
  3  4  1  0  0  0  0
  3 30  1  0  0  0  0
  3 31  1  0  0  0  0
  4  5  1  0  0  0  0
  4 32  1  0  0  0  0
  4 33  1  0  0  0  0
  5  6  1  0  0  0  0
  5 34  1  0  0  0  0
  5 35  1  0  0  0  0
  6  7  1  0  0  0  0
  6 36  1  0  0  0  0
  6 37  1  0  0  0  0
  7  8  1  0  0  0  0
  7 38  1  0  0  0  0
  7 39  1  0  0  0  0
  8  9  1  0  0  0  0
  8 40  1  0  0  0  0
  8 41  1  0  0  0  0
  9 10  1  0  0  0  0
  9 42  1  0  0  0  0
  9 43  1  0  0  0  0
 10 11  1  0  0  0  0
 10 44  1  0  0  0  0
 10 45  1  0  0  0  0
 11 12  1  0  0  0  0
 11 46  1  0  0  0  0
 11 47  1  0  0  0  0
 12 13  1  0  0  0  0
 12 48  1  0  0  0  0
 13 14  1  0  0  0  0
 13 49  1  0  0  0  0
 13 50  1  0  0  0  0
 14 15  2  0  0  0  0
 14 16  1  0  0  0  0
 16 17  2  0  0  0  0
 16 24  1  0  0  0  0
 17 18  1  0  0  0  0
 17 51  1  0  0  0  0
 18 19  1  0  0  0  0
 18 25  2  3  0  0  0
 19 20  2  0  0  0  0
 19 21  1  0  0  0  0
 21 22  1  0  0  0  0
 21 52  1  0  0  0  0
 21 53  1  0  0  0  0
 22 23  1  0  0  0  0
 22 54  1  0  0  0  0
 22 55  1  0  0  0  0
 23 24  1  0  0  0  0
 23 56  1  0  0  0  0
 23 57  1  0  0  0  0
 24 58  1  0  0  0  0
 24 59  1  0  0  0  0
 25 60  1  0  0  0  0
M  END
$$$$
