
 OpenBabel04232216483D

 68 69  0  0  1  0  0  0  0  0999 V2000
    0.7563    2.2314   -2.9942 C   0  0  0  0  0  0  0  0  0  0  0  0
    2.2688    2.4285   -2.9202 C   0  0  3  0  0  0  0  0  0  0  0  0
    2.9580    1.5930   -3.9517 C   0  0  0  0  0  3  0  0  0  0  0  0
    3.4195    0.2141   -3.6088 C   0  0  0  0  0  0  0  0  0  0  0  0
    4.0440    0.0733   -2.1960 C   0  0  3  0  0  0  0  0  0  0  0  0
    5.5853    0.1088   -2.2241 C   0  0  0  0  0  0  0  0  0  0  0  0
    6.1325    1.4196   -2.7814 C   0  0  0  0  0  0  0  0  0  0  0  0
    7.6502    1.4326   -2.7956 C   0  0  0  0  0  0  0  0  0  0  0  0
    8.1202    2.7600   -3.3708 C   0  0  0  0  0  0  0  0  0  0  0  0
    9.6350    2.8224   -3.4006 C   0  0  0  0  0  0  0  0  0  0  0  0
   10.0820    4.1547   -3.9775 C   0  0  0  0  0  0  0  0  0  0  0  0
   11.5947    4.2388   -4.0159 C   0  0  0  0  0  0  0  0  0  0  0  0
   12.0526    5.5735   -4.5841 C   0  0  0  0  0  0  0  0  0  0  0  0
   11.2809    6.4374   -4.9657 O   0  0  0  0  0  0  0  0  0  0  0  0
   13.5012    5.8038   -4.6370 C   0  0  0  0  0  0  0  0  0  0  0  0
   14.4274    4.9124   -4.2592 C   0  0  0  0  0  0  0  0  0  0  0  0
   15.7231    5.5157   -4.3724 C   0  0  0  0  0  0  0  0  0  0  0  0
   15.6022    6.7754   -4.8031 C   0  0  0  0  0  0  0  0  0  0  0  0
   16.7206    7.7437   -5.0134 C   0  0  0  0  0  0  0  0  0  0  0  0
   16.5936    9.0052   -4.1616 C   0  0  0  0  0  0  0  0  0  0  0  0
   17.7648    9.9607   -4.3958 C   0  0  0  0  0  0  0  0  0  0  0  0
   17.6039   11.2116   -3.5331 C   0  0  0  0  0  0  0  0  0  0  0  0
   18.7557   12.1910   -3.7368 C   0  0  0  0  0  0  0  0  0  0  0  0
   18.5741   13.4261   -2.8695 C   0  0  0  0  0  0  0  0  0  0  0  0
   14.1424    7.0947   -5.0471 C   0  0  0  0  0  0  0  0  0  0  0  0
    3.5382    1.0929   -1.2002 C   0  0  0  0  0  0  0  0  0  0  0  0
    2.7593    2.1337   -1.5291 C   0  0  0  0  0  0  0  0  0  0  0  0
    0.3911    2.3072   -4.0248 H   0  0  0  0  0  0  0  0  0  0  0  0
    0.2409    2.9953   -2.4017 H   0  0  0  0  0  0  0  0  0  0  0  0
    0.4545    1.2510   -2.6050 H   0  0  0  0  0  0  0  0  0  0  0  0
    2.4995    3.4767   -3.1486 H   0  0  0  0  0  0  0  0  0  0  0  0
    2.9248    1.8950   -4.9927 H   0  0  0  0  0  0  0  0  0  0  0  0
    4.1234   -0.0996   -4.3879 H   0  0  0  0  0  0  0  0  0  0  0  0
    2.5632   -0.4684   -3.6912 H   0  0  0  0  0  0  0  0  0  0  0  0
    3.7568   -0.9160   -1.8146 H   0  0  0  0  0  0  0  0  0  0  0  0
    5.9583   -0.7253   -2.8331 H   0  0  0  0  0  0  0  0  0  0  0  0
    5.9786   -0.0517   -1.2106 H   0  0  0  0  0  0  0  0  0  0  0  0
    5.7939    2.2676   -2.1775 H   0  0  0  0  0  0  0  0  0  0  0  0
    5.7582    1.5758   -3.7985 H   0  0  0  0  0  0  0  0  0  0  0  0
    8.0353    0.5968   -3.3918 H   0  0  0  0  0  0  0  0  0  0  0  0
    8.0325    1.3153   -1.7748 H   0  0  0  0  0  0  0  0  0  0  0  0
    7.7286    3.5869   -2.7639 H   0  0  0  0  0  0  0  0  0  0  0  0
    7.7184    2.8899   -4.3836 H   0  0  0  0  0  0  0  0  0  0  0  0
   10.0292    1.9982   -4.0071 H   0  0  0  0  0  0  0  0  0  0  0  0
   10.0320    2.7015   -2.3852 H   0  0  0  0  0  0  0  0  0  0  0  0
    9.6788    4.9768   -3.3733 H   0  0  0  0  0  0  0  0  0  0  0  0
    9.6786    4.2772   -4.9897 H   0  0  0  0  0  0  0  0  0  0  0  0
   11.9966    3.4274   -4.6333 H   0  0  0  0  0  0  0  0  0  0  0  0
   11.9960    4.1434   -3.0006 H   0  0  0  0  0  0  0  0  0  0  0  0
   14.2480    3.9171   -3.8860 H   0  0  0  0  0  0  0  0  0  0  0  0
   16.6396    5.0080   -4.1097 H   0  0  0  0  0  0  0  0  0  0  0  0
   16.7697    8.0175   -6.0731 H   0  0  0  0  0  0  0  0  0  0  0  0
   17.6685    7.2474   -4.7682 H   0  0  0  0  0  0  0  0  0  0  0  0
   16.5542    8.7378   -3.0975 H   0  0  0  0  0  0  0  0  0  0  0  0
   15.6567    9.5242   -4.4005 H   0  0  0  0  0  0  0  0  0  0  0  0
   17.8099   10.2430   -5.4546 H   0  0  0  0  0  0  0  0  0  0  0  0
   18.7095    9.4599   -4.1517 H   0  0  0  0  0  0  0  0  0  0  0  0
   17.5510   10.9222   -2.4764 H   0  0  0  0  0  0  0  0  0  0  0  0
   16.6554   11.7049   -3.7791 H   0  0  0  0  0  0  0  0  0  0  0  0
   18.8094   12.4911   -4.7896 H   0  0  0  0  0  0  0  0  0  0  0  0
   19.7066   11.7073   -3.4861 H   0  0  0  0  0  0  0  0  0  0  0  0
   17.6425   13.9439   -3.1178 H   0  0  0  0  0  0  0  0  0  0  0  0
   19.4036   14.1232   -3.0208 H   0  0  0  0  0  0  0  0  0  0  0  0
   18.5439   13.1569   -1.8085 H   0  0  0  0  0  0  0  0  0  0  0  0
   13.9504    7.3264   -6.1003 H   0  0  0  0  0  0  0  0  0  0  0  0
   13.8029    7.9193   -4.4124 H   0  0  0  0  0  0  0  0  0  0  0  0
    3.8598    0.9765   -0.1671 H   0  0  0  0  0  0  0  0  0  0  0  0
    2.4554    2.8277   -0.7493 H   0  0  0  0  0  0  0  0  0  0  0  0
  1  2  1  0  0  0  0
  1 28  1  0  0  0  0
  1 29  1  0  0  0  0
  1 30  1  0  0  0  0
  2  3  1  0  0  0  0
  2 27  1  0  0  0  0
  2 31  1  0  0  0  0
  3  4  1  0  0  0  0
  3 32  1  0  0  0  0
  4  5  1  0  0  0  0
  4 33  1  0  0  0  0
  4 34  1  0  0  0  0
  5  6  1  0  0  0  0
  5 26  1  0  0  0  0
  5 35  1  0  0  0  0
  6  7  1  0  0  0  0
  6 36  1  0  0  0  0
  6 37  1  0  0  0  0
  7  8  1  0  0  0  0
  7 38  1  0  0  0  0
  7 39  1  0  0  0  0
  8  9  1  0  0  0  0
  8 40  1  0  0  0  0
  8 41  1  0  0  0  0
  9 10  1  0  0  0  0
  9 42  1  0  0  0  0
  9 43  1  0  0  0  0
 10 11  1  0  0  0  0
 10 44  1  0  0  0  0
 10 45  1  0  0  0  0
 11 12  1  0  0  0  0
 11 46  1  0  0  0  0
 11 47  1  0  0  0  0
 12 13  1  0  0  0  0
 12 48  1  0  0  0  0
 12 49  1  0  0  0  0
 13 14  2  0  0  0  0
 13 15  1  0  0  0  0
 15 16  2  0  0  0  0
 15 25  1  0  0  0  0
 16 17  1  0  0  0  0
 16 50  1  0  0  0  0
 17 18  2  0  0  0  0
 17 51  1  0  0  0  0
 18 19  1  0  0  0  0
 18 25  1  0  0  0  0
 19 20  1  0  0  0  0
 19 52  1  0  0  0  0
 19 53  1  0  0  0  0
 20 21  1  0  0  0  0
 20 54  1  0  0  0  0
 20 55  1  0  0  0  0
 21 22  1  0  0  0  0
 21 56  1  0  0  0  0
 21 57  1  0  0  0  0
 22 23  1  0  0  0  0
 22 58  1  0  0  0  0
 22 59  1  0  0  0  0
 23 24  1  0  0  0  0
 23 60  1  0  0  0  0
 23 61  1  0  0  0  0
 24 62  1  0  0  0  0
 24 63  1  0  0  0  0
 24 64  1  0  0  0  0
 25 65  1  0  0  0  0
 25 66  1  0  0  0  0
 26 27  2  0  0  0  0
 26 67  1  0  0  0  0
 27 68  1  0  0  0  0
M  END
$$$$
