
 OpenBabel04232216403D

164163  0  0  0  0  0  0  0  0999 V2000
   31.4734  -21.9096  -23.4093 C   0  0  0  0  0  0  0  0  0  0  0  0
   32.2089  -21.9967  -22.3041 C   0  0  0  0  0  0  0  0  0  0  0  0
   32.7000  -20.8039  -21.5487 C   0  0  0  0  0  0  0  0  0  0  0  0
   32.1761  -20.7945  -20.1177 C   0  0  0  0  0  0  0  0  0  0  0  0
   32.6837  -19.5655  -19.3753 C   0  0  0  0  0  0  0  0  0  0  0  0
   32.1595  -19.5569  -17.9484 C   0  0  0  0  0  0  0  0  0  0  0  0
   32.6669  -18.3287  -17.2107 C   0  0  0  0  0  0  0  0  0  0  0  0
   32.1404  -18.3213  -15.7859 C   0  0  0  0  0  0  0  0  0  0  0  0
   32.6479  -17.0941  -15.0504 C   0  0  0  0  0  0  0  0  0  0  0  0
   32.1224  -17.0895  -13.6266 C   0  0  0  0  0  0  0  0  0  0  0  0
   32.6284  -15.8617  -12.8925 C   0  0  0  0  0  0  0  0  0  0  0  0
   32.1015  -15.8559  -11.4694 C   0  0  0  0  0  0  0  0  0  0  0  0
   32.6099  -14.6282  -10.7367 C   0  0  0  0  0  0  0  0  0  0  0  0
   32.0831  -14.6185   -9.3141 C   0  0  0  0  0  0  0  0  0  0  0  0
   32.5935  -13.3898   -8.5825 C   0  0  0  0  0  0  0  0  0  0  0  0
   32.0635  -13.3818   -7.1622 C   0  0  0  0  0  0  0  0  0  0  0  0
   32.5663  -12.1592   -6.4160 C   0  0  0  0  0  0  0  0  0  0  0  0
   32.0235  -12.1732   -5.0089 C   0  0  0  0  0  0  0  0  0  0  0  0
   32.5077  -11.0200   -4.3268 O   0  0  0  0  0  0  0  0  0  0  0  0
   32.0185  -11.0110   -2.9941 C   0  0  0  0  0  0  0  0  0  0  0  0
   32.4611  -12.1562   -2.2787 O   0  0  0  0  0  0  0  0  0  0  0  0
   31.9575  -12.1489   -0.9682 C   0  0  0  0  0  0  0  0  0  0  0  0
   32.4277  -13.3973   -0.2796 C   0  0  0  0  0  0  0  0  0  0  0  0
   31.9149  -13.3610    1.0521 O   0  0  0  0  0  0  0  0  0  0  0  0
   32.3409  -14.4974    1.7693 C   0  0  0  0  0  0  0  0  0  0  0  0
   33.7409  -14.5566    1.8411 O   0  0  0  0  0  0  0  0  0  0  0  0
   34.0518  -15.7929    2.5186 O   0  0  0  0  0  0  0  0  0  0  0  0
   35.4606  -15.7708    2.6278 C   0  0  0  0  0  0  0  0  0  0  0  0
   35.8949  -14.5583    3.2419 O   0  0  0  0  0  0  0  0  0  0  0  0
   35.3612  -14.5146    4.5605 C   0  0  0  0  0  0  0  0  0  0  0  0
   35.8030  -15.6300    5.3011 O   0  0  0  0  0  0  0  0  0  0  0  0
   37.2506  -15.5121    5.1969 O   0  0  0  0  0  0  0  0  0  0  0  0
   37.6639  -14.2953    5.8758 O   0  0  0  0  0  0  0  0  0  0  0  0
   37.1174  -14.3211    7.2142 O   0  0  0  0  0  0  0  0  0  0  0  0
   37.8157  -15.4042    7.8150 C   0  0  0  0  0  0  0  0  0  0  0  0
   39.2117  -15.2404    7.6801 O   0  0  0  0  0  0  0  0  0  0  0  0
   39.5666  -14.0411    8.3706 C   0  0  0  0  0  0  0  0  0  0  0  0
   39.2056  -14.1947    9.7058 O   0  0  0  0  0  0  0  0  0  0  0  0
   39.5107  -12.9234   10.3283 O   0  0  0  0  0  0  0  0  0  0  0  0
   39.2323  -13.1622   11.6985 C   0  0  0  0  0  0  0  0  0  0  0  0
   39.9288  -14.3285   12.1351 O   0  0  0  0  0  0  0  0  0  0  0  0
   41.3314  -14.0748   12.0246 C   0  0  0  0  0  0  0  0  0  0  0  0
   41.6924  -12.9569   12.8030 O   0  0  0  0  0  0  0  0  0  0  0  0
   41.2229  -13.3415   14.1245 O   0  0  0  0  0  0  0  0  0  0  0  0
   41.9815  -14.5034   14.5622 O   0  0  0  0  0  0  0  0  0  0  0  0
   43.3941  -14.1884   14.4693 O   0  0  0  0  0  0  0  0  0  0  0  0
   43.5351  -13.1639   15.4377 C   0  0  0  0  0  0  0  0  0  0  0  0
   43.0547  -13.6030   16.6938 O   0  0  0  0  0  0  0  0  0  0  0  0
   43.8477  -14.7273   17.0885 C   0  0  0  0  0  0  0  0  0  0  0  0
   45.2066  -14.3614   17.2057 O   0  0  0  0  0  0  0  0  0  0  0  0
   45.1540  -13.2361   18.1120 O   0  0  0  0  0  0  0  0  0  0  0  0
   46.4822  -12.7889   18.2674 C   0  0  0  0  0  0  0  0  0  0  0  0
   46.4835  -11.7168   19.1914 O   0  0  0  0  0  0  0  0  0  0  0  0
   46.0565  -12.1945   20.4663 C   0  0  0  0  0  0  0  0  0  0  0  0
   46.8656  -13.2564   20.9276 O   0  0  0  0  0  0  0  0  0  0  0  0
   48.1812  -12.6570   20.9152 O   0  0  0  0  0  0  0  0  0  0  0  0
   49.0548  -13.6615   21.3639 C   0  0  0  0  0  0  0  0  0  0  0  0
   50.3717  -13.1358   21.4061 O   0  0  0  0  0  0  0  0  0  0  0  0
   50.4197  -12.1117   22.3969 C   0  0  0  0  0  0  0  0  0  0  0  0
   49.9768  -12.6220   23.6429 O   0  0  0  0  0  0  0  0  0  0  0  0
   50.8795  -13.6711   24.0506 C   0  0  0  0  0  0  0  0  0  0  0  0
   52.2023  -13.2196   24.1919 O   0  0  0  0  0  0  0  0  0  0  0  0
   52.0675  -12.1330   25.1213 O   0  0  0  0  0  0  0  0  0  0  0  0
   53.3514  -11.5996   25.2950 C   0  0  0  0  0  0  0  0  0  0  0  0
   53.2600  -10.5541   26.2482 O   0  0  0  0  0  0  0  0  0  0  0  0
   52.8321  -11.1066   27.4962 C   0  0  0  0  0  0  0  0  0  0  0  0
   53.7422  -12.0954   27.9425 O   0  0  0  0  0  0  0  0  0  0  0  0
   54.9951  -11.3570   27.9779 O   0  0  0  0  0  0  0  0  0  0  0  0
   54.8905  -10.3176   28.9876 O   0  0  0  0  0  0  0  0  0  0  0  0
   54.4827  -10.9365   30.2358 O   0  0  0  0  0  0  0  0  0  0  0  0
   55.6071  -11.7526   30.5434 C   0  0  0  0  0  0  0  0  0  0  0  0
   56.7921  -10.9697   30.5692 O   0  0  0  0  0  0  0  0  0  0  0  0
   56.6555   -9.9823   31.5925 C   0  0  0  0  0  0  0  0  0  0  0  0
   56.4931  -10.5720   32.8632 O   0  0  0  0  0  0  0  0  0  0  0  0
   57.6332  -11.4548   32.9779 O   0  0  0  0  0  0  0  0  0  0  0  0
   57.4871  -12.1200   34.2087 C   0  0  0  0  0  0  0  0  0  0  0  0
   58.5845  -12.9551   34.4669 O   0  0  0  0  0  0  0  0  0  0  0  0
   59.7945  -12.1940   34.4888 C   0  0  0  0  0  0  0  0  0  0  0  0
   60.9189  -13.0270   34.7283 O   0  0  0  0  0  0  0  0  0  0  0  0
   61.0438  -13.9950   33.6924 C   0  0  0  0  0  0  0  0  0  0  0  0
   31.1329  -22.8024  -23.9344 H   0  0  0  0  0  0  0  0  0  0  0  0
   31.1919  -20.9419  -23.8157 H   0  0  0  0  0  0  0  0  0  0  0  0
   32.4741  -22.9904  -21.9249 H   0  0  0  0  0  0  0  0  0  0  0  0
   32.3814  -19.8865  -22.0564 H   0  0  0  0  0  0  0  0  0  0  0  0
   33.7945  -20.8066  -21.5415 H   0  0  0  0  0  0  0  0  0  0  0  0
   32.4978  -21.7021  -19.5914 H   0  0  0  0  0  0  0  0  0  0  0  0
   31.0774  -20.7958  -20.1189 H   0  0  0  0  0  0  0  0  0  0  0  0
   32.3597  -18.6555  -19.8943 H   0  0  0  0  0  0  0  0  0  0  0  0
   33.7800  -19.5617  -19.3672 H   0  0  0  0  0  0  0  0  0  0  0  0
   32.4845  -20.4641  -17.4246 H   0  0  0  0  0  0  0  0  0  0  0  0
   31.0626  -19.5598  -17.9523 H   0  0  0  0  0  0  0  0  0  0  0  0
   32.3430  -17.4191  -17.7311 H   0  0  0  0  0  0  0  0  0  0  0  0
   33.7637  -18.3242  -17.2014 H   0  0  0  0  0  0  0  0  0  0  0  0
   32.4642  -19.2295  -15.2627 H   0  0  0  0  0  0  0  0  0  0  0  0
   31.0434  -18.3243  -15.7924 H   0  0  0  0  0  0  0  0  0  0  0  0
   32.3229  -16.1849  -15.5710 H   0  0  0  0  0  0  0  0  0  0  0  0
   33.7449  -17.0892  -15.0432 H   0  0  0  0  0  0  0  0  0  0  0  0
   32.4487  -17.9975  -13.1045 H   0  0  0  0  0  0  0  0  0  0  0  0
   31.0254  -17.0951  -13.6327 H   0  0  0  0  0  0  0  0  0  0  0  0
   32.3034  -14.9534  -13.4148 H   0  0  0  0  0  0  0  0  0  0  0  0
   33.7254  -15.8565  -12.8847 H   0  0  0  0  0  0  0  0  0  0  0  0
   32.4254  -16.7645  -10.9471 H   0  0  0  0  0  0  0  0  0  0  0  0
   31.0046  -15.8594  -11.4770 H   0  0  0  0  0  0  0  0  0  0  0  0
   32.2876  -13.7203  -11.2607 H   0  0  0  0  0  0  0  0  0  0  0  0
   33.7072  -14.6263  -10.7287 H   0  0  0  0  0  0  0  0  0  0  0  0
   32.4057  -15.5267   -8.7901 H   0  0  0  0  0  0  0  0  0  0  0  0
   30.9864  -14.6208   -9.3221 H   0  0  0  0  0  0  0  0  0  0  0  0
   32.2717  -12.4816   -9.1064 H   0  0  0  0  0  0  0  0  0  0  0  0
   33.6902  -13.3889   -8.5723 H   0  0  0  0  0  0  0  0  0  0  0  0
   32.3830  -14.2930   -6.6410 H   0  0  0  0  0  0  0  0  0  0  0  0
   30.9667  -13.3851   -7.1742 H   0  0  0  0  0  0  0  0  0  0  0  0
   32.2623  -11.2331   -6.9161 H   0  0  0  0  0  0  0  0  0  0  0  0
   33.6630  -12.1402   -6.3946 H   0  0  0  0  0  0  0  0  0  0  0  0
   32.3611  -13.0824   -4.4937 H   0  0  0  0  0  0  0  0  0  0  0  0
   30.9294  -12.1607   -5.0182 H   0  0  0  0  0  0  0  0  0  0  0  0
   30.9226  -10.9746   -3.0139 H   0  0  0  0  0  0  0  0  0  0  0  0
   32.3984  -10.1140   -2.4969 H   0  0  0  0  0  0  0  0  0  0  0  0
   30.8663  -12.1139   -0.9661 H   0  0  0  0  0  0  0  0  0  0  0  0
   32.3162  -11.2628   -0.4263 H   0  0  0  0  0  0  0  0  0  0  0  0
   33.5247  -13.4285   -0.2827 H   0  0  0  0  0  0  0  0  0  0  0  0
   32.0672  -14.2899   -0.8008 H   0  0  0  0  0  0  0  0  0  0  0  0
   31.9584  -15.4060    1.2958 H   0  0  0  0  0  0  0  0  0  0  0  0
   31.9438  -14.4341    2.7944 H   0  0  0  0  0  0  0  0  0  0  0  0
   35.8802  -15.8266    1.6173 H   0  0  0  0  0  0  0  0  0  0  0  0
   35.7843  -16.6538    3.1713 H   0  0  0  0  0  0  0  0  0  0  0  0
   34.2707  -14.4985    4.5470 H   0  0  0  0  0  0  0  0  0  0  0  0
   35.6787  -13.5801    5.0376 H   0  0  0  0  0  0  0  0  0  0  0  0
   37.5178  -16.3376    7.2985 H   0  0  0  0  0  0  0  0  0  0  0  0
   37.4941  -15.5217    8.8458 H   0  0  0  0  0  0  0  0  0  0  0  0
   39.0593  -13.1743    7.9509 H   0  0  0  0  0  0  0  0  0  0  0  0
   40.6462  -13.8882    8.2824 H   0  0  0  0  0  0  0  0  0  0  0  0
   38.1536  -13.3349   11.7941 H   0  0  0  0  0  0  0  0  0  0  0  0
   39.4885  -12.2740   12.2677 H   0  0  0  0  0  0  0  0  0  0  0  0
   41.6180  -13.9089   10.9883 H   0  0  0  0  0  0  0  0  0  0  0  0
   41.8747  -14.9703   12.3546 H   0  0  0  0  0  0  0  0  0  0  0  0
   42.9557  -12.2797   15.1200 H   0  0  0  0  0  0  0  0  0  0  0  0
   44.5760  -12.8375   15.4679 H   0  0  0  0  0  0  0  0  0  0  0  0
   43.7708  -15.5459   16.3751 H   0  0  0  0  0  0  0  0  0  0  0  0
   43.4900  -15.0874   18.0601 H   0  0  0  0  0  0  0  0  0  0  0  0
   46.8257  -12.4134   17.2918 H   0  0  0  0  0  0  0  0  0  0  0  0
   47.1315  -13.6129   18.5640 H   0  0  0  0  0  0  0  0  0  0  0  0
   45.0271  -12.5725   20.3980 H   0  0  0  0  0  0  0  0  0  0  0  0
   46.0782  -11.3857   21.1869 H   0  0  0  0  0  0  0  0  0  0  0  0
   49.0455  -14.4794   20.6360 H   0  0  0  0  0  0  0  0  0  0  0  0
   48.7216  -14.0649   22.3199 H   0  0  0  0  0  0  0  0  0  0  0  0
   49.7527  -11.2850   22.1006 H   0  0  0  0  0  0  0  0  0  0  0  0
   51.4270  -11.6994   22.4553 H   0  0  0  0  0  0  0  0  0  0  0  0
   50.8655  -14.4855   23.3257 H   0  0  0  0  0  0  0  0  0  0  0  0
   50.5313  -14.0733   25.0108 H   0  0  0  0  0  0  0  0  0  0  0  0
   53.7079  -11.1692   24.3445 H   0  0  0  0  0  0  0  0  0  0  0  0
   54.0488  -12.3806   25.6012 H   0  0  0  0  0  0  0  0  0  0  0  0
   51.8385  -11.5422   27.4073 H   0  0  0  0  0  0  0  0  0  0  0  0
   52.7546  -10.2998   28.2312 H   0  0  0  0  0  0  0  0  0  0  0  0
   55.7099  -12.5330   29.7766 H   0  0  0  0  0  0  0  0  0  0  0  0
   55.4299  -12.2682   31.4853 H   0  0  0  0  0  0  0  0  0  0  0  0
   55.8052   -9.3232   31.4003 H   0  0  0  0  0  0  0  0  0  0  0  0
   57.5567   -9.3602   31.6073 H   0  0  0  0  0  0  0  0  0  0  0  0
   56.5788  -12.7370   34.1637 H   0  0  0  0  0  0  0  0  0  0  0  0
   57.3805  -11.3837   35.0135 H   0  0  0  0  0  0  0  0  0  0  0  0
   59.7310  -11.4544   35.2969 H   0  0  0  0  0  0  0  0  0  0  0  0
   59.9478  -11.6600   33.5449 H   0  0  0  0  0  0  0  0  0  0  0  0
   61.9004  -14.6290   33.9093 H   0  0  0  0  0  0  0  0  0  0  0  0
   61.1949  -13.5012   32.7264 H   0  0  0  0  0  0  0  0  0  0  0  0
   60.1495  -14.6297   33.6430 H   0  0  0  0  0  0  0  0  0  0  0  0
  1  2  2  0  0  0  0
  1 81  1  0  0  0  0
  1 82  1  0  0  0  0
  2  3  1  0  0  0  0
  2 83  1  0  0  0  0
  3  4  1  0  0  0  0
  3 84  1  0  0  0  0
  3 85  1  0  0  0  0
  4  5  1  0  0  0  0
  4 86  1  0  0  0  0
  4 87  1  0  0  0  0
  5  6  1  0  0  0  0
  5 88  1  0  0  0  0
  5 89  1  0  0  0  0
  6  7  1  0  0  0  0
  6 90  1  0  0  0  0
  6 91  1  0  0  0  0
  7  8  1  0  0  0  0
  7 92  1  0  0  0  0
  7 93  1  0  0  0  0
  8  9  1  0  0  0  0
  8 94  1  0  0  0  0
  8 95  1  0  0  0  0
  9 10  1  0  0  0  0
  9 96  1  0  0  0  0
  9 97  1  0  0  0  0
 10 11  1  0  0  0  0
 10 98  1  0  0  0  0
 10 99  1  0  0  0  0
 11 12  1  0  0  0  0
 11100  1  0  0  0  0
 11101  1  0  0  0  0
 12 13  1  0  0  0  0
 12102  1  0  0  0  0
 12103  1  0  0  0  0
 13 14  1  0  0  0  0
 13104  1  0  0  0  0
 13105  1  0  0  0  0
 14 15  1  0  0  0  0
 14106  1  0  0  0  0
 14107  1  0  0  0  0
 15 16  1  0  0  0  0
 15108  1  0  0  0  0
 15109  1  0  0  0  0
 16 17  1  0  0  0  0
 16110  1  0  0  0  0
 16111  1  0  0  0  0
 17 18  1  0  0  0  0
 17112  1  0  0  0  0
 17113  1  0  0  0  0
 18 19  1  0  0  0  0
 18114  1  0  0  0  0
 18115  1  0  0  0  0
 19 20  1  0  0  0  0
 20 21  1  0  0  0  0
 20116  1  0  0  0  0
 20117  1  0  0  0  0
 21 22  1  0  0  0  0
 22 23  1  0  0  0  0
 22118  1  0  0  0  0
 22119  1  0  0  0  0
 23 24  1  0  0  0  0
 23120  1  0  0  0  0
 23121  1  0  0  0  0
 24 25  1  0  0  0  0
 25 26  1  0  0  0  0
 25122  1  0  0  0  0
 25123  1  0  0  0  0
 26 27  1  0  0  0  0
 27 28  1  0  0  0  0
 28 29  1  0  0  0  0
 28124  1  0  0  0  0
 28125  1  0  0  0  0
 29 30  1  0  0  0  0
 30 31  1  0  0  0  0
 30126  1  0  0  0  0
 30127  1  0  0  0  0
 31 32  1  0  0  0  0
 32 33  1  0  0  0  0
 33 34  1  0  0  0  0
 34 35  1  0  0  0  0
 35 36  1  0  0  0  0
 35128  1  0  0  0  0
 35129  1  0  0  0  0
 36 37  1  0  0  0  0
 37 38  1  0  0  0  0
 37130  1  0  0  0  0
 37131  1  0  0  0  0
 38 39  1  0  0  0  0
 39 40  1  0  0  0  0
 40 41  1  0  0  0  0
 40132  1  0  0  0  0
 40133  1  0  0  0  0
 41 42  1  0  0  0  0
 42 43  1  0  0  0  0
 42134  1  0  0  0  0
 42135  1  0  0  0  0
 43 44  1  0  0  0  0
 44 45  1  0  0  0  0
 45 46  1  0  0  0  0
 46 47  1  0  0  0  0
 47 48  1  0  0  0  0
 47136  1  0  0  0  0
 47137  1  0  0  0  0
 48 49  1  0  0  0  0
 49 50  1  0  0  0  0
 49138  1  0  0  0  0
 49139  1  0  0  0  0
 50 51  1  0  0  0  0
 51 52  1  0  0  0  0
 52 53  1  0  0  0  0
 52140  1  0  0  0  0
 52141  1  0  0  0  0
 53 54  1  0  0  0  0
 54 55  1  0  0  0  0
 54142  1  0  0  0  0
 54143  1  0  0  0  0
 55 56  1  0  0  0  0
 56 57  1  0  0  0  0
 57 58  1  0  0  0  0
 57144  1  0  0  0  0
 57145  1  0  0  0  0
 58 59  1  0  0  0  0
 59 60  1  0  0  0  0
 59146  1  0  0  0  0
 59147  1  0  0  0  0
 60 61  1  0  0  0  0
 61 62  1  0  0  0  0
 61148  1  0  0  0  0
 61149  1  0  0  0  0
 62 63  1  0  0  0  0
 63 64  1  0  0  0  0
 64 65  1  0  0  0  0
 64150  1  0  0  0  0
 64151  1  0  0  0  0
 65 66  1  0  0  0  0
 66 67  1  0  0  0  0
 66152  1  0  0  0  0
 66153  1  0  0  0  0
 67 68  1  0  0  0  0
 68 69  1  0  0  0  0
 69 70  1  0  0  0  0
 70 71  1  0  0  0  0
 71 72  1  0  0  0  0
 71154  1  0  0  0  0
 71155  1  0  0  0  0
 72 73  1  0  0  0  0
 73 74  1  0  0  0  0
 73156  1  0  0  0  0
 73157  1  0  0  0  0
 74 75  1  0  0  0  0
 75 76  1  0  0  0  0
 76 77  1  0  0  0  0
 76158  1  0  0  0  0
 76159  1  0  0  0  0
 77 78  1  0  0  0  0
 78 79  1  0  0  0  0
 78160  1  0  0  0  0
 78161  1  0  0  0  0
 79 80  1  0  0  0  0
 80162  1  0  0  0  0
 80163  1  0  0  0  0
 80164  1  0  0  0  0
M  END
$$$$
