
 OpenBabel04232216523D

 74 75  0  0  1  0  0  0  0  0999 V2000
   17.9360   -9.0826    3.0394 C   0  0  0  0  0  0  0  0  0  0  0  0
   16.5153   -8.5525    2.9215 C   0  0  0  0  0  0  0  0  0  0  0  0
   16.4656   -7.0219    2.8974 C   0  0  0  0  0  0  0  0  0  0  0  0
   15.0153   -6.5194    2.7963 C   0  0  0  0  0  0  0  0  0  0  0  0
   14.9453   -4.9837    2.8617 C   0  0  3  0  0  0  0  0  0  0  0  0
   13.5056   -4.3513    2.6911 C   0  0  3  0  0  0  0  0  0  0  0  0
   13.0881   -3.3871    3.8248 C   0  0  0  0  0  0  0  0  0  0  0  0
   11.7511   -2.7028    3.5251 C   0  0  0  0  0  0  0  0  0  0  0  0
   11.3034   -1.6326    4.5524 C   0  0  0  0  0  0  0  0  0  0  0  0
   12.2075   -0.3896    4.9780 C   0  0  0  0  0  0  0  0  0  0  0  0
   12.6378    0.7151    3.9302 C   0  0  0  0  0  0  0  0  0  0  0  0
   13.4109    2.1334    4.3557 C   0  0  0  0  0  0  0  0  0  0  0  0
   15.0398    2.7903    4.5720 C   0  0  0  0  0  0  0  0  0  0  0  0
   15.1404    4.0223    4.6152 O   0  0  0  0  0  0  0  0  0  0  0  0
   16.3418    1.9355    4.8111 C   0  0  0  0  0  0  0  0  0  0  0  0
   15.8829    0.7005    4.6904 C   0  0  0  0  0  0  0  0  0  0  0  0
   16.5635   -0.4798    5.0063 C   0  0  0  0  0  0  0  0  0  0  0  0
   16.4632   -1.4717    4.1099 C   0  0  0  0  0  0  0  0  0  0  0  0
   17.4663   -2.3350    3.8384 N   0  0  0  0  0  0  0  0  0  0  0  0
   18.1670   -2.0783    2.5540 C   0  0  0  0  0  0  0  0  0  0  0  0
   19.2551   -1.0491    2.7776 C   0  0  0  0  0  0  0  0  0  0  0  0
   20.7918   -1.3279    2.6268 C   0  0  0  0  0  0  0  0  0  0  0  0
   21.2556   -0.2467    3.5769 C   0  0  0  0  0  0  0  0  0  0  0  0
   22.1670    0.6345    4.3464 C   0  0  0  0  0  0  0  0  0  0  0  0
   21.0662    1.6929    5.1516 C   0  0  0  0  0  0  0  0  0  0  0  0
   19.3674    1.5764    4.7812 C   0  0  0  0  0  0  0  0  0  0  0  0
   17.9336    2.4156    5.2438 C   0  0  0  0  0  0  0  0  0  0  0  0
   14.0682   -3.7096    1.4396 C   0  0  0  0  0  0  0  0  0  0  0  0
   15.2976   -4.2634    1.5778 C   0  0  0  0  0  0  0  0  0  0  0  0
   17.9291  -10.1777    3.0573 H   0  0  0  0  0  0  0  0  0  0  0  0
   18.4122   -8.7337    3.9611 H   0  0  0  0  0  0  0  0  0  0  0  0
   18.5486   -8.7627    2.1907 H   0  0  0  0  0  0  0  0  0  0  0  0
   15.9265   -8.9283    3.7665 H   0  0  0  0  0  0  0  0  0  0  0  0
   16.0606   -8.9523    2.0077 H   0  0  0  0  0  0  0  0  0  0  0  0
   17.0513   -6.6468    2.0493 H   0  0  0  0  0  0  0  0  0  0  0  0
   16.9352   -6.6240    3.8055 H   0  0  0  0  0  0  0  0  0  0  0  0
   14.4386   -6.9427    3.6299 H   0  0  0  0  0  0  0  0  0  0  0  0
   14.5637   -6.8955    1.8717 H   0  0  0  0  0  0  0  0  0  0  0  0
   15.4766   -4.6303    3.7526 H   0  0  0  0  0  0  0  0  0  0  0  0
   12.7313   -5.1017    2.5235 H   0  0  0  0  0  0  0  0  0  0  0  0
   13.8515   -2.6228    3.9824 H   0  0  0  0  0  0  0  0  0  0  0  0
   12.9991   -3.9579    4.7588 H   0  0  0  0  0  0  0  0  0  0  0  0
   10.9848   -3.5007    3.5123 H   0  0  0  0  0  0  0  0  0  0  0  0
   11.7354   -2.2841    2.5148 H   0  0  0  0  0  0  0  0  0  0  0  0
   11.0939   -2.1944    5.4794 H   0  0  0  0  0  0  0  0  0  0  0  0
   10.3139   -1.2759    4.2302 H   0  0  0  0  0  0  0  0  0  0  0  0
   13.0885   -0.7827    5.4880 H   0  0  0  0  0  0  0  0  0  0  0  0
   11.5984    0.1163    5.7422 H   0  0  0  0  0  0  0  0  0  0  0  0
   11.6675    1.0538    3.5233 H   0  0  0  0  0  0  0  0  0  0  0  0
   13.1422    0.2344    3.0874 H   0  0  0  0  0  0  0  0  0  0  0  0
   12.8325    2.5374    5.2009 H   0  0  0  0  0  0  0  0  0  0  0  0
   13.1225    2.7463    3.4821 H   0  0  0  0  0  0  0  0  0  0  0  0
   14.9608    0.5209    4.1620 H   0  0  0  0  0  0  0  0  0  0  0  0
   17.2300   -0.5065    5.8536 H   0  0  0  0  0  0  0  0  0  0  0  0
   15.7740   -1.3505    3.2552 H   0  0  0  0  0  0  0  0  0  0  0  0
   18.1238   -2.2946    4.6224 H   0  0  0  0  0  0  0  0  0  0  0  0
   17.4710   -1.6355    1.8320 H   0  0  0  0  0  0  0  0  0  0  0  0
   18.5755   -3.0200    2.1483 H   0  0  0  0  0  0  0  0  0  0  0  0
   19.0976   -0.7732    3.8187 H   0  0  0  0  0  0  0  0  0  0  0  0
   19.0105   -0.1291    2.2280 H   0  0  0  0  0  0  0  0  0  0  0  0
   21.1048   -1.1647    1.5889 H   0  0  0  0  0  0  0  0  0  0  0  0
   21.0557   -2.3442    2.9329 H   0  0  0  0  0  0  0  0  0  0  0  0
   20.8046   -0.6617    4.4831 H   0  0  0  0  0  0  0  0  0  0  0  0
   20.8172    0.5835    3.0251 H   0  0  0  0  0  0  0  0  0  0  0  0
   22.8726    1.1813    3.7043 H   0  0  0  0  0  0  0  0  0  0  0  0
   22.7797    0.0630    5.0637 H   0  0  0  0  0  0  0  0  0  0  0  0
   21.2132    1.4570    6.2140 H   0  0  0  0  0  0  0  0  0  0  0  0
   21.4529    2.6991    4.9622 H   0  0  0  0  0  0  0  0  0  0  0  0
   19.1571    0.5730    5.1396 H   0  0  0  0  0  0  0  0  0  0  0  0
   19.3382    1.6554    3.6928 H   0  0  0  0  0  0  0  0  0  0  0  0
   18.0715    3.4418    4.8836 H   0  0  0  0  0  0  0  0  0  0  0  0
   17.9485    2.4350    6.3406 H   0  0  0  0  0  0  0  0  0  0  0  0
   13.6276   -3.0595    0.6958 H   0  0  0  0  0  0  0  0  0  0  0  0
   16.2139   -4.2068    0.9815 H   0  0  0  0  0  0  0  0  0  0  0  0
  1  2  1  0  0  0  0
  1 30  1  0  0  0  0
  1 31  1  0  0  0  0
  1 32  1  0  0  0  0
  2  3  1  0  0  0  0
  2 33  1  0  0  0  0
  2 34  1  0  0  0  0
  3  4  1  0  0  0  0
  3 35  1  0  0  0  0
  3 36  1  0  0  0  0
  4  5  1  0  0  0  0
  4 37  1  0  0  0  0
  4 38  1  0  0  0  0
  5  6  1  0  0  0  0
  5 29  1  0  0  0  0
  5 39  1  0  0  0  0
  6  7  1  0  0  0  0
  6 28  1  0  0  0  0
  6 40  1  0  0  0  0
  7  8  1  0  0  0  0
  7 41  1  0  0  0  0
  7 42  1  0  0  0  0
  8  9  1  0  0  0  0
  8 43  1  0  0  0  0
  8 44  1  0  0  0  0
  9 10  1  0  0  0  0
  9 45  1  0  0  0  0
  9 46  1  0  0  0  0
 10 11  1  0  0  0  0
 10 47  1  0  0  0  0
 10 48  1  0  0  0  0
 11 12  1  0  0  0  0
 11 49  1  0  0  0  0
 11 50  1  0  0  0  0
 12 13  1  0  0  0  0
 12 51  1  0  0  0  0
 12 52  1  0  0  0  0
 13 14  2  0  0  0  0
 13 15  1  0  0  0  0
 15 16  2  3  0  0  0
 15 27  1  0  0  0  0
 16 17  1  0  0  0  0
 16 53  1  0  0  0  0
 17 18  2  3  0  0  0
 17 54  1  0  0  0  0
 18 19  1  0  0  0  0
 18 55  1  0  0  0  0
 19 20  1  0  0  0  0
 19 56  1  0  0  0  0
 20 21  1  0  0  0  0
 20 57  1  0  0  0  0
 20 58  1  0  0  0  0
 21 22  1  0  0  0  0
 21 59  1  0  0  0  0
 21 60  1  0  0  0  0
 22 23  1  0  0  0  0
 22 61  1  0  0  0  0
 22 62  1  0  0  0  0
 23 24  1  0  0  0  0
 23 63  1  0  0  0  0
 23 64  1  0  0  0  0
 24 25  1  0  0  0  0
 24 65  1  0  0  0  0
 24 66  1  0  0  0  0
 25 26  1  0  0  0  0
 25 67  1  0  0  0  0
 25 68  1  0  0  0  0
 26 27  1  0  0  0  0
 26 69  1  0  0  0  0
 26 70  1  0  0  0  0
 27 71  1  0  0  0  0
 27 72  1  0  0  0  0
 28 29  2  0  0  0  0
 28 73  1  0  0  0  0
 29 74  1  0  0  0  0
M  END
$$$$
