
 OpenBabel04232216583D

165164  0  0  0  0  0  0  0  0999 V2000
   25.4709    5.8848   19.8973 N   0  0  0  0  0  0  0  0  0  0  0  0
   24.9134    4.7463   19.3566 N   0  0  0  0  0  0  0  0  0  0  0  0
   25.3596    3.6069   20.0840 N   0  0  0  0  0  0  0  0  0  0  0  0
   24.9968    3.6764   21.4752 N   0  0  0  0  0  0  0  0  0  0  0  0
   23.5453    3.7627   21.5708 C   0  0  0  0  0  0  0  0  0  0  0  0
   23.1462    3.8811   22.9811 N   0  0  0  0  0  0  0  0  0  0  0  0
   23.7066    5.0500   23.5574 N   0  0  0  0  0  0  0  0  0  0  0  0
   23.2434    6.2158   22.8861 N   0  0  0  0  0  0  0  0  0  0  0  0
   23.8117    7.3645   23.4428 N   0  0  0  0  0  0  0  0  0  0  0  0
   25.2336    7.3132   23.3673 N   0  0  0  0  0  0  0  0  0  0  0  0
   25.6303    7.2291   22.0172 N   0  0  0  0  0  0  0  0  0  0  0  0
   25.1584    8.3787   21.2837 N   0  0  0  0  0  0  0  0  0  0  0  0
   25.7088    9.5509   21.8469 N   0  0  0  0  0  0  0  0  0  0  0  0
   27.1402    9.4826   21.7803 N   0  0  0  0  0  0  0  0  0  0  0  0
   27.5439    9.3710   20.4053 N   0  0  0  0  0  0  0  0  0  0  0  0
   27.0653   10.5117   19.6797 N   0  0  0  0  0  0  0  0  0  0  0  0
   27.6028   11.7024   20.2642 N   0  0  0  0  0  0  0  0  0  0  0  0
   29.0379   11.6392   20.2096 N   0  0  0  0  0  0  0  0  0  0  0  0
   29.4470   11.5198   18.8334 N   0  0  0  0  0  0  0  0  0  0  0  0
   28.9596   12.6584   18.0992 N   0  0  0  0  0  0  0  0  0  0  0  0
   29.4959   13.8587   18.6830 N   0  0  0  0  0  0  0  0  0  0  0  0
   30.9303   13.8103   18.6303 N   0  0  0  0  0  0  0  0  0  0  0  0
   31.3504   13.6853   17.2723 N   0  0  0  0  0  0  0  0  0  0  0  0
   30.8724   14.7995   16.5273 N   0  0  0  0  0  0  0  0  0  0  0  0
   31.3857   16.0019   17.0924 N   0  0  0  0  0  0  0  0  0  0  0  0
   32.8123   15.9717   17.0623 N   0  0  0  0  0  0  0  0  0  0  0  0
   33.2559   15.8431   15.7092 N   0  0  0  0  0  0  0  0  0  0  0  0
   32.7801   16.9507   14.9461 N   0  0  0  0  0  0  0  0  0  0  0  0
   33.2793   18.1645   15.5121 N   0  0  0  0  0  0  0  0  0  0  0  0
   34.7103   18.1317   15.4928 N   0  0  0  0  0  0  0  0  0  0  0  0
   35.1544   17.9905   14.1400 N   0  0  0  0  0  0  0  0  0  0  0  0
   34.6777   19.0981   13.3747 N   0  0  0  0  0  0  0  0  0  0  0  0
   35.1849   20.3227   13.9142 N   0  0  0  0  0  0  0  0  0  0  0  0
   36.6098   20.3169   13.8944 N   0  0  0  0  0  0  0  0  0  0  0  0
   37.0783   20.1858   12.5601 N   0  0  0  0  0  0  0  0  0  0  0  0
   36.6112   21.2736   11.7756 N   0  0  0  0  0  0  0  0  0  0  0  0
   37.0907   22.4995   12.3150 N   0  0  0  0  0  0  0  0  0  0  0  0
   38.5220   22.4989   12.3161 N   0  0  0  0  0  0  0  0  0  0  0  0
   38.9988   22.3504   10.9695 N   0  0  0  0  0  0  0  0  0  0  0  0
   38.5184   23.4431   10.1702 N   0  0  0  0  0  0  0  0  0  0  0  0
   38.9986   24.6806   10.7169 N   0  0  0  0  0  0  0  0  0  0  0  0
   40.4301   24.6848   10.7224 N   0  0  0  0  0  0  0  0  0  0  0  0
   40.9199   24.5239    9.3856 N   0  0  0  0  0  0  0  0  0  0  0  0
   40.4201   25.5948    8.5853 N   0  0  0  0  0  0  0  0  0  0  0  0
   40.8759   26.8308    9.1435 N   0  0  0  0  0  0  0  0  0  0  0  0
   42.3091   26.8218    9.1658 N   0  0  0  0  0  0  0  0  0  0  0  0
   42.7958   26.6612    7.8317 N   0  0  0  0  0  0  0  0  0  0  0  0
   42.3195   27.7259    7.0238 N   0  0  0  0  0  0  0  0  0  0  0  0
   42.7700   28.9699    7.5423 N   0  0  0  0  0  0  0  0  0  0  0  0
   44.1865   28.9838    7.5793 N   0  0  0  0  0  0  0  0  0  0  0  0
   44.6881   28.8186    6.2615 N   0  0  0  0  0  0  0  0  0  0  0  0
   44.2220   29.8777    5.4372 N   0  0  0  0  0  0  0  0  0  0  0  0
   44.6613   31.1266    5.9509 N   0  0  0  0  0  0  0  0  0  0  0  0
   46.0823   31.1582    5.9978 N   0  0  0  0  0  0  0  0  0  0  0  0
   46.6032   30.9823    4.6819 N   0  0  0  0  0  0  0  0  0  0  0  0
   46.1333   32.0353    3.8404 N   0  0  0  0  0  0  0  0  0  0  0  0
   46.5621   33.2997    4.3560 N   0  0  0  0  0  0  0  0  0  0  0  0
   47.9871   33.3310    4.4182 N   0  0  0  0  0  0  0  0  0  0  0  0
   48.5189   33.1460    3.1045 N   0  0  0  0  0  0  0  0  0  0  0  0
   48.0430   34.1898    2.2530 N   0  0  0  0  0  0  0  0  0  0  0  0
   48.4505   35.4575    2.7780 N   0  0  0  0  0  0  0  0  0  0  0  0
   49.8900   35.5025    2.8398 N   0  0  0  0  0  0  0  0  0  0  0  0
   50.4358   35.3145    1.5165 N   0  0  0  0  0  0  0  0  0  0  0  0
   49.9299   36.3510    0.6601 N   0  0  0  0  0  0  0  0  0  0  0  0
   50.3417   37.6242    1.1904 N   0  0  0  0  0  0  0  0  0  0  0  0
   51.7823   37.6564    1.2726 N   0  0  0  0  0  0  0  0  0  0  0  0
   52.3268   37.4622   -0.0496 N   0  0  0  0  0  0  0  0  0  0  0  0
   51.8335   38.4965   -0.9240 N   0  0  0  0  0  0  0  0  0  0  0  0
   52.2395   39.7872   -0.4098 N   0  0  0  0  0  0  0  0  0  0  0  0
   53.6831   39.8381   -0.3217 N   0  0  0  0  0  0  0  0  0  0  0  0
   54.2413   39.6344   -1.6398 N   0  0  0  0  0  0  0  0  0  0  0  0
   53.7464   40.6639   -2.5187 N   0  0  0  0  0  0  0  0  0  0  0  0
   54.1358   41.9463   -1.9952 N   0  0  0  0  0  0  0  0  0  0  0  0
   55.5718   42.0027   -1.9078 N   0  0  0  0  0  0  0  0  0  0  0  0
   56.1342   41.7905   -3.2120 N   0  0  0  0  0  0  0  0  0  0  0  0
   55.6488   42.8087   -4.0996 N   0  0  0  0  0  0  0  0  0  0  0  0
   56.0273   44.0966   -3.5898 N   0  0  0  0  0  0  0  0  0  0  0  0
   57.4581   44.1654   -3.4897 N   0  0  0  0  0  0  0  0  0  0  0  0
   58.0434   43.9656   -4.7868 N   0  0  0  0  0  0  0  0  0  0  0  0
   57.5725   44.9672   -5.6904 N   0  0  0  0  0  0  0  0  0  0  0  0
   57.9292   46.2602   -5.2059 N   0  0  0  0  0  0  0  0  0  0  0  0
   25.1462    6.7303   19.4286 H   0  0  0  0  0  0  0  0  0  0  0  0
   26.4855    5.8720   19.8579 H   0  0  0  0  0  0  0  0  0  0  0  0
   25.1551    4.6583   18.3669 H   0  0  0  0  0  0  0  0  0  0  0  0
   26.3798    3.5382   19.9939 H   0  0  0  0  0  0  0  0  0  0  0  0
   25.4083    4.5177   21.8473 H   0  0  0  0  0  0  0  0  0  0  0  0
   23.0843    2.8748   21.1330 H   0  0  0  0  0  0  0  0  0  0  0  0
   23.1541    4.6343   21.0222 H   0  0  0  0  0  0  0  0  0  0  0  0
   23.4781    3.0535   23.4791 H   0  0  0  0  0  0  0  0  0  0  0  0
   24.7204    4.9893   23.4858 H   0  0  0  0  0  0  0  0  0  0  0  0
   22.2307    6.2373   22.9199 H   0  0  0  0  0  0  0  0  0  0  0  0
   23.5370    7.4140   24.4120 H   0  0  0  0  0  0  0  0  0  0  0  0
   25.5546    6.4733   23.8409 H   0  0  0  0  0  0  0  0  0  0  0  0
   25.2250    6.3818   21.5562 H   0  0  0  0  0  0  0  0  0  0  0  0
   24.1401    8.3667   21.3347 H   0  0  0  0  0  0  0  0  0  0  0  0
   25.4229    9.5783   22.8208 H   0  0  0  0  0  0  0  0  0  0  0  0
   27.4493    8.6447   22.2777 H   0  0  0  0  0  0  0  0  0  0  0  0
   27.1278    8.5169   20.0102 H   0  0  0  0  0  0  0  0  0  0  0  0
   26.0466   10.5273   19.7469 H   0  0  0  0  0  0  0  0  0  0  0  0
   27.2969   11.7494   21.2428 H   0  0  0  0  0  0  0  0  0  0  0  0
   29.3534   10.8091   20.7361 H   0  0  0  0  0  0  0  0  0  0  0  0
   29.0480   10.6510   18.4374 H   0  0  0  0  0  0  0  0  0  0  0  0
   27.9279   12.6746   18.1441 H   0  0  0  0  0  0  0  0  0  0  0  0
   29.1843   13.9340   19.6619 H   0  0  0  0  0  0  0  0  0  0  0  0
   31.2725   13.0029   19.1537 H   0  0  0  0  0  0  0  0  0  0  0  0
   30.9805   12.8360   16.8573 H   0  0  0  0  0  0  0  0  0  0  0  0
   29.8615   14.8442   16.5506 H   0  0  0  0  0  0  0  0  0  0  0  0
   31.0980   16.1032   18.0561 H   0  0  0  0  0  0  0  0  0  0  0  0
   33.1651   15.1784   17.5819 H   0  0  0  0  0  0  0  0  0  0  0  0
   32.8902   14.9981   15.2915 H   0  0  0  0  0  0  0  0  0  0  0  0
   31.7721   16.9969   14.9653 H   0  0  0  0  0  0  0  0  0  0  0  0
   32.9724   18.2659   16.4746 H   0  0  0  0  0  0  0  0  0  0  0  0
   35.0616   17.3411   16.0287 H   0  0  0  0  0  0  0  0  0  0  0  0
   34.8014   17.1297   13.7220 H   0  0  0  0  0  0  0  0  0  0  0  0
   33.6566   19.1364   13.3698 H   0  0  0  0  0  0  0  0  0  0  0  0
   34.8882   20.4439   14.8784 H   0  0  0  0  0  0  0  0  0  0  0  0
   36.9688   19.5359   14.4298 H   0  0  0  0  0  0  0  0  0  0  0  0
   36.7236   19.3302   12.1506 H   0  0  0  0  0  0  0  0  0  0  0  0
   35.5971   21.2957   11.8014 H   0  0  0  0  0  0  0  0  0  0  0  0
   36.7629   22.5825   13.2762 H   0  0  0  0  0  0  0  0  0  0  0  0
   38.8354   21.6927   12.8797 H   0  0  0  0  0  0  0  0  0  0  0  0
   38.6147   21.4542   10.6122 H   0  0  0  0  0  0  0  0  0  0  0  0
   37.4784   23.4086   10.2135 H   0  0  0  0  0  0  0  0  0  0  0  0
   38.6463   24.7418   11.6859 H   0  0  0  0  0  0  0  0  0  0  0  0
   40.7284   23.8854   11.2932 H   0  0  0  0  0  0  0  0  0  0  0  0
   40.5400   23.6394    9.0365 H   0  0  0  0  0  0  0  0  0  0  0  0
   39.3951   25.5612    8.6187 H   0  0  0  0  0  0  0  0  0  0  0  0
   40.5163   26.9012   10.1059 H   0  0  0  0  0  0  0  0  0  0  0  0
   42.6228   26.0336    9.7462 H   0  0  0  0  0  0  0  0  0  0  0  0
   42.4615   25.7806    7.4440 H   0  0  0  0  0  0  0  0  0  0  0  0
   41.3086   27.7382    6.9986 H   0  0  0  0  0  0  0  0  0  0  0  0
   42.4199   29.0965    8.4880 H   0  0  0  0  0  0  0  0  0  0  0  0
   44.5368   28.2207    8.1642 H   0  0  0  0  0  0  0  0  0  0  0  0
   44.3687   27.9250    5.8737 H   0  0  0  0  0  0  0  0  0  0  0  0
   43.2042   29.8826    5.4222 H   0  0  0  0  0  0  0  0  0  0  0  0
   44.3103   31.2412    6.8960 H   0  0  0  0  0  0  0  0  0  0  0  0
   46.4075   30.3928    6.5925 H   0  0  0  0  0  0  0  0  0  0  0  0
   46.2672   30.0823    4.3179 H   0  0  0  0  0  0  0  0  0  0  0  0
   45.1111   32.0175    3.8355 H   0  0  0  0  0  0  0  0  0  0  0  0
   46.1804   33.3988    5.3033 H   0  0  0  0  0  0  0  0  0  0  0  0
   48.2971   32.5615    5.0267 H   0  0  0  0  0  0  0  0  0  0  0  0
   48.1799   32.2388    2.7519 H   0  0  0  0  0  0  0  0  0  0  0  0
   47.0184   34.1454    2.2319 H   0  0  0  0  0  0  0  0  0  0  0  0
   48.0500   35.5490    3.7306 H   0  0  0  0  0  0  0  0  0  0  0  0
   50.1916   34.7246    3.4499 H   0  0  0  0  0  0  0  0  0  0  0  0
   50.0945   34.3961    1.1846 H   0  0  0  0  0  0  0  0  0  0  0  0
   48.8982   36.2833    0.6574 H   0  0  0  0  0  0  0  0  0  0  0  0
   49.9541   37.7249    2.1324 H   0  0  0  0  0  0  0  0  0  0  0  0
   52.0966   36.8939    1.8931 H   0  0  0  0  0  0  0  0  0  0  0  0
   52.0166   36.5572   -0.4105 H   0  0  0  0  0  0  0  0  0  0  0  0
   50.8063   38.4450   -0.9620 H   0  0  0  0  0  0  0  0  0  0  0  0
   51.8490   39.9048    0.5306 H   0  0  0  0  0  0  0  0  0  0  0  0
   53.9939   39.0857    0.3141 H   0  0  0  0  0  0  0  0  0  0  0  0
   53.9402   38.7109   -1.9880 H   0  0  0  0  0  0  0  0  0  0  0  0
   52.7158   40.6040   -2.5644 H   0  0  0  0  0  0  0  0  0  0  0  0
   53.7212   42.0781   -1.0587 H   0  0  0  0  0  0  0  0  0  0  0  0
   55.9166   41.2751   -1.2729 H   0  0  0  0  0  0  0  0  0  0  0  0
   55.8621   40.8648   -3.5714 H   0  0  0  0  0  0  0  0  0  0  0  0
   54.6236   42.7564   -4.1732 H   0  0  0  0  0  0  0  0  0  0  0  0
   55.6173   44.2457   -2.6582 H   0  0  0  0  0  0  0  0  0  0  0  0
   57.8079   43.4450   -2.8468 H   0  0  0  0  0  0  0  0  0  0  0  0
   57.7767   43.0406   -5.1487 H   0  0  0  0  0  0  0  0  0  0  0  0
   56.5513   44.9083   -5.7780 H   0  0  0  0  0  0  0  0  0  0  0  0
   58.9492   46.3216   -5.1150 H   0  0  0  0  0  0  0  0  0  0  0  0
   57.5328   46.4160   -4.2734 H   0  0  0  0  0  0  0  0  0  0  0  0
  1  2  1  0  0  0  0
  1 82  1  0  0  0  0
  1 83  1  0  0  0  0
  2  3  1  0  0  0  0
  2 84  1  0  0  0  0
  3  4  1  0  0  0  0
  3 85  1  0  0  0  0
  4  5  1  0  0  0  0
  4 86  1  0  0  0  0
  5  6  1  0  0  0  0
  5 87  1  0  0  0  0
  5 88  1  0  0  0  0
  6  7  1  0  0  0  0
  6 89  1  0  0  0  0
  7  8  1  0  0  0  0
  7 90  1  0  0  0  0
  8  9  1  0  0  0  0
  8 91  1  0  0  0  0
  9 10  1  0  0  0  0
  9 92  1  0  0  0  0
 10 11  1  0  0  0  0
 10 93  1  0  0  0  0
 11 12  1  0  0  0  0
 11 94  1  0  0  0  0
 12 13  1  0  0  0  0
 12 95  1  0  0  0  0
 13 14  1  0  0  0  0
 13 96  1  0  0  0  0
 14 15  1  0  0  0  0
 14 97  1  0  0  0  0
 15 16  1  0  0  0  0
 15 98  1  0  0  0  0
 16 17  1  0  0  0  0
 16 99  1  0  0  0  0
 17 18  1  0  0  0  0
 17100  1  0  0  0  0
 18 19  1  0  0  0  0
 18101  1  0  0  0  0
 19 20  1  0  0  0  0
 19102  1  0  0  0  0
 20 21  1  0  0  0  0
 20103  1  0  0  0  0
 21 22  1  0  0  0  0
 21104  1  0  0  0  0
 22 23  1  0  0  0  0
 22105  1  0  0  0  0
 23 24  1  0  0  0  0
 23106  1  0  0  0  0
 24 25  1  0  0  0  0
 24107  1  0  0  0  0
 25 26  1  0  0  0  0
 25108  1  0  0  0  0
 26 27  1  0  0  0  0
 26109  1  0  0  0  0
 27 28  1  0  0  0  0
 27110  1  0  0  0  0
 28 29  1  0  0  0  0
 28111  1  0  0  0  0
 29 30  1  0  0  0  0
 29112  1  0  0  0  0
 30 31  1  0  0  0  0
 30113  1  0  0  0  0
 31 32  1  0  0  0  0
 31114  1  0  0  0  0
 32 33  1  0  0  0  0
 32115  1  0  0  0  0
 33 34  1  0  0  0  0
 33116  1  0  0  0  0
 34 35  1  0  0  0  0
 34117  1  0  0  0  0
 35 36  1  0  0  0  0
 35118  1  0  0  0  0
 36 37  1  0  0  0  0
 36119  1  0  0  0  0
 37 38  1  0  0  0  0
 37120  1  0  0  0  0
 38 39  1  0  0  0  0
 38121  1  0  0  0  0
 39 40  1  0  0  0  0
 39122  1  0  0  0  0
 40 41  1  0  0  0  0
 40123  1  0  0  0  0
 41 42  1  0  0  0  0
 41124  1  0  0  0  0
 42 43  1  0  0  0  0
 42125  1  0  0  0  0
 43 44  1  0  0  0  0
 43126  1  0  0  0  0
 44 45  1  0  0  0  0
 44127  1  0  0  0  0
 45 46  1  0  0  0  0
 45128  1  0  0  0  0
 46 47  1  0  0  0  0
 46129  1  0  0  0  0
 47 48  1  0  0  0  0
 47130  1  0  0  0  0
 48 49  1  0  0  0  0
 48131  1  0  0  0  0
 49 50  1  0  0  0  0
 49132  1  0  0  0  0
 50 51  1  0  0  0  0
 50133  1  0  0  0  0
 51 52  1  0  0  0  0
 51134  1  0  0  0  0
 52 53  1  0  0  0  0
 52135  1  0  0  0  0
 53 54  1  0  0  0  0
 53136  1  0  0  0  0
 54 55  1  0  0  0  0
 54137  1  0  0  0  0
 55 56  1  0  0  0  0
 55138  1  0  0  0  0
 56 57  1  0  0  0  0
 56139  1  0  0  0  0
 57 58  1  0  0  0  0
 57140  1  0  0  0  0
 58 59  1  0  0  0  0
 58141  1  0  0  0  0
 59 60  1  0  0  0  0
 59142  1  0  0  0  0
 60 61  1  0  0  0  0
 60143  1  0  0  0  0
 61 62  1  0  0  0  0
 61144  1  0  0  0  0
 62 63  1  0  0  0  0
 62145  1  0  0  0  0
 63 64  1  0  0  0  0
 63146  1  0  0  0  0
 64 65  1  0  0  0  0
 64147  1  0  0  0  0
 65 66  1  0  0  0  0
 65148  1  0  0  0  0
 66 67  1  0  0  0  0
 66149  1  0  0  0  0
 67 68  1  0  0  0  0
 67150  1  0  0  0  0
 68 69  1  0  0  0  0
 68151  1  0  0  0  0
 69 70  1  0  0  0  0
 69152  1  0  0  0  0
 70 71  1  0  0  0  0
 70153  1  0  0  0  0
 71 72  1  0  0  0  0
 71154  1  0  0  0  0
 72 73  1  0  0  0  0
 72155  1  0  0  0  0
 73 74  1  0  0  0  0
 73156  1  0  0  0  0
 74 75  1  0  0  0  0
 74157  1  0  0  0  0
 75 76  1  0  0  0  0
 75158  1  0  0  0  0
 76 77  1  0  0  0  0
 76159  1  0  0  0  0
 77 78  1  0  0  0  0
 77160  1  0  0  0  0
 78 79  1  0  0  0  0
 78161  1  0  0  0  0
 79 80  1  0  0  0  0
 79162  1  0  0  0  0
 80 81  1  0  0  0  0
 80163  1  0  0  0  0
 81164  1  0  0  0  0
 81165  1  0  0  0  0
M  END
$$$$
