
 OpenBabel04232216593D

228228  0  0  1  0  0  0  0  0999 V2000
    0.9884    0.0062    0.1200 O   0  0  0  0  0  0  0  0  0  0  0  0
    2.2008   -0.0102    0.0486 C   0  0  0  0  0  0  0  0  0  0  0  0
    3.0806   -1.2711    0.0112 C   0  0  0  0  0  0  0  0  0  0  0  0
    3.9829   -1.2427   -1.0964 O   0  0  0  0  0  0  0  0  0  0  0  0
    4.8449   -0.0989   -1.1077 C   0  0  0  0  0  0  0  0  0  0  0  0
    4.0322    1.1971   -1.1267 C   0  0  0  0  0  0  0  0  0  0  0  0
    3.0816    1.2637    0.0748 C   0  0  3  0  0  0  0  0  0  0  0  0
    3.9109    1.3132    1.3670 C   0  0  0  0  0  0  0  0  0  0  0  0
    3.0077    1.3790    2.5779 C   0  0  0  0  0  0  0  0  0  0  0  0
    3.8419    1.4151    3.8423 C   0  0  0  0  0  0  0  0  0  0  0  0
    2.9209    1.4790    5.0431 C   0  0  0  0  0  0  0  0  0  0  0  0
    3.7409    1.5166    6.3157 C   0  0  0  0  0  0  0  0  0  0  0  0
    2.8192    1.5807    7.5171 C   0  0  0  0  0  0  0  0  0  0  0  0
    3.6391    1.6189    8.7916 C   0  0  0  0  0  0  0  0  0  0  0  0
    2.7180    1.6812    9.9943 C   0  0  0  0  0  0  0  0  0  0  0  0
    3.5379    1.7215   11.2692 C   0  0  0  0  0  0  0  0  0  0  0  0
    2.6168    1.7819   12.4722 C   0  0  0  0  0  0  0  0  0  0  0  0
    3.4367    1.8242   13.7471 C   0  0  0  0  0  0  0  0  0  0  0  0
    2.5156    1.8825   14.9502 C   0  0  0  0  0  0  0  0  0  0  0  0
    3.3355    1.9248   16.2251 C   0  0  0  0  0  0  0  0  0  0  0  0
    2.4144    1.9831   17.4282 C   0  0  0  0  0  0  0  0  0  0  0  0
    3.2343    2.0275   18.7030 C   0  0  0  0  0  0  0  0  0  0  0  0
    2.3132    2.0878   19.9061 C   0  0  0  0  0  0  0  0  0  0  0  0
    3.1332    2.1342   21.1808 C   0  0  0  0  0  0  0  0  0  0  0  0
    2.2121    2.1965   22.3838 C   0  0  0  0  0  0  0  0  0  0  0  0
    3.0320    2.2409   23.6586 C   0  0  0  0  0  0  0  0  0  0  0  0
    2.1109    2.3012   24.8617 C   0  0  0  0  0  0  0  0  0  0  0  0
    2.9308    2.3455   26.1365 C   0  0  0  0  0  0  0  0  0  0  0  0
    2.0097    2.4059   27.3395 C   0  0  0  0  0  0  0  0  0  0  0  0
    2.8296    2.4482   28.6145 C   0  0  0  0  0  0  0  0  0  0  0  0
    1.9085    2.5105   29.8174 C   0  0  0  0  0  0  0  0  0  0  0  0
    2.7284    2.5509   31.0924 C   0  0  0  0  0  0  0  0  0  0  0  0
    1.8073    2.6132   32.2954 C   0  0  0  0  0  0  0  0  0  0  0  0
    2.6272    2.6555   33.5703 C   0  0  0  0  0  0  0  0  0  0  0  0
    1.7061    2.7178   34.7733 C   0  0  0  0  0  0  0  0  0  0  0  0
    2.5260    2.7602   36.0482 C   0  0  0  0  0  0  0  0  0  0  0  0
    1.6050    2.8225   37.2511 C   0  0  0  0  0  0  0  0  0  0  0  0
    2.4249    2.8669   38.5259 C   0  0  0  0  0  0  0  0  0  0  0  0
    1.5038    2.9272   39.7290 C   0  0  0  0  0  0  0  0  0  0  0  0
    2.3237    2.9735   41.0037 C   0  0  0  0  0  0  0  0  0  0  0  0
    1.4026    3.0319   42.2069 C   0  0  0  0  0  0  0  0  0  0  0  0
    2.2226    3.0782   43.4816 C   0  0  0  0  0  0  0  0  0  0  0  0
    1.3014    3.1365   44.6847 C   0  0  0  0  0  0  0  0  0  0  0  0
    2.1214    3.1829   45.9595 C   0  0  0  0  0  0  0  0  0  0  0  0
    1.2003    3.2412   47.1626 C   0  0  0  0  0  0  0  0  0  0  0  0
    2.0202    3.2876   48.4374 C   0  0  0  0  0  0  0  0  0  0  0  0
    1.0991    3.3459   49.6405 C   0  0  0  0  0  0  0  0  0  0  0  0
    1.9190    3.3902   50.9153 C   0  0  0  0  0  0  0  0  0  0  0  0
    0.9979    3.4505   52.1184 C   0  0  0  0  0  0  0  0  0  0  0  0
    1.8179    3.4969   53.3931 C   0  0  0  0  0  0  0  0  0  0  0  0
    0.8968    3.5572   54.5962 C   0  0  0  0  0  0  0  0  0  0  0  0
    1.7167    3.6056   55.8708 C   0  0  0  0  0  0  0  0  0  0  0  0
    0.7956    3.6659   57.0739 C   0  0  0  0  0  0  0  0  0  0  0  0
    1.6156    3.7143   58.3485 C   0  0  0  0  0  0  0  0  0  0  0  0
    0.6945    3.7746   59.5516 C   0  0  0  0  0  0  0  0  0  0  0  0
    1.5145    3.8250   60.8261 C   0  0  0  0  0  0  0  0  0  0  0  0
    0.5934    3.8833   62.0293 C   0  0  0  0  0  0  0  0  0  0  0  0
    1.4134    3.9337   63.3038 C   0  0  0  0  0  0  0  0  0  0  0  0
    0.4922    3.9920   64.5070 C   0  0  0  0  0  0  0  0  0  0  0  0
    1.3122    4.0424   65.7815 C   0  0  0  0  0  0  0  0  0  0  0  0
    0.3911    4.1007   66.9847 C   0  0  0  0  0  0  0  0  0  0  0  0
    1.2111    4.1511   68.2592 C   0  0  0  0  0  0  0  0  0  0  0  0
    0.2900    4.2094   69.4624 C   0  0  0  0  0  0  0  0  0  0  0  0
    1.1100    4.2578   70.7370 C   0  0  0  0  0  0  0  0  0  0  0  0
    0.1888    4.3141   71.9402 C   0  0  0  0  0  0  0  0  0  0  0  0
    1.0088    4.3625   73.2149 C   0  0  0  0  0  0  0  0  0  0  0  0
    0.0877    4.4188   74.4181 C   0  0  0  0  0  0  0  0  0  0  0  0
    0.9076    4.4671   75.6928 C   0  0  0  0  0  0  0  0  0  0  0  0
   -0.0135    4.5234   76.8960 C   0  0  0  0  0  0  0  0  0  0  0  0
    0.8065    4.5718   78.1706 C   0  0  0  0  0  0  0  0  0  0  0  0
   -0.1146    4.6301   79.3738 C   0  0  0  0  0  0  0  0  0  0  0  0
    0.7054    4.6785   80.6485 C   0  0  0  0  0  0  0  0  0  0  0  0
   -0.2158    4.7368   81.8519 C   0  0  0  0  0  0  0  0  0  0  0  0
    0.6039    4.7872   83.1271 C   0  0  0  0  0  0  0  0  0  0  0  0
   -0.3178    4.8476   84.3313 C   0  0  0  0  0  0  0  0  0  0  0  0
    0.5006    4.8981   85.6086 C   0  0  0  0  0  0  0  0  0  0  0  0
   -0.4171    4.9608   86.8186 C   0  0  0  0  0  0  0  0  0  0  0  0
    0.4029    5.0110   88.0907 C   0  0  0  0  0  0  0  0  0  0  0  0
    2.4547   -2.1644   -0.0491 H   0  0  0  0  0  0  0  0  0  0  0  0
    3.6520   -1.3509    0.9410 H   0  0  0  0  0  0  0  0  0  0  0  0
    5.4779   -0.1541   -1.9989 H   0  0  0  0  0  0  0  0  0  0  0  0
    5.5296   -0.1420   -0.2525 H   0  0  0  0  0  0  0  0  0  0  0  0
    3.4457    1.2370   -2.0507 H   0  0  0  0  0  0  0  0  0  0  0  0
    4.7081    2.0613   -1.1242 H   0  0  0  0  0  0  0  0  0  0  0  0
    2.4415    2.1510    0.0038 H   0  0  0  0  0  0  0  0  0  0  0  0
    4.5943    2.1694    1.3460 H   0  0  0  0  0  0  0  0  0  0  0  0
    4.5552    0.4356    1.4875 H   0  0  0  0  0  0  0  0  0  0  0  0
    2.3516    0.5004    2.6117 H   0  0  0  0  0  0  0  0  0  0  0  0
    2.3740    2.2681    2.5084 H   0  0  0  0  0  0  0  0  0  0  0  0
    4.5055    2.2874    3.8257 H   0  0  0  0  0  0  0  0  0  0  0  0
    4.4762    0.5211    3.9042 H   0  0  0  0  0  0  0  0  0  0  0  0
    2.2555    0.6065    5.0509 H   0  0  0  0  0  0  0  0  0  0  0  0
    2.2878    2.3723    4.9767 H   0  0  0  0  0  0  0  0  0  0  0  0
    4.4043    2.3899    6.3051 H   0  0  0  0  0  0  0  0  0  0  0  0
    4.3750    0.6236    6.3772 H   0  0  0  0  0  0  0  0  0  0  0  0
    2.1556    0.7073    7.5254 H   0  0  0  0  0  0  0  0  0  0  0  0
    2.1850    2.4734    7.4535 H   0  0  0  0  0  0  0  0  0  0  0  0
    4.3018    2.4930    8.7828 H   0  0  0  0  0  0  0  0  0  0  0  0
    4.2744    0.7268    8.8535 H   0  0  0  0  0  0  0  0  0  0  0  0
    2.0564    0.8063   10.0033 H   0  0  0  0  0  0  0  0  0  0  0  0
    2.0817    2.5725    9.9313 H   0  0  0  0  0  0  0  0  0  0  0  0
    4.1985    2.5972   11.2605 H   0  0  0  0  0  0  0  0  0  0  0  0
    4.1753    0.8310   11.3314 H   0  0  0  0  0  0  0  0  0  0  0  0
    1.9572    0.9055   12.4815 H   0  0  0  0  0  0  0  0  0  0  0  0
    1.9784    2.6717   12.4093 H   0  0  0  0  0  0  0  0  0  0  0  0
    4.0953    2.7014   13.7383 H   0  0  0  0  0  0  0  0  0  0  0  0
    4.0761    0.9351   13.8093 H   0  0  0  0  0  0  0  0  0  0  0  0
    1.8570    1.0053   14.9589 H   0  0  0  0  0  0  0  0  0  0  0  0
    1.8762    2.7716   14.8879 H   0  0  0  0  0  0  0  0  0  0  0  0
    3.9941    2.8020   16.2163 H   0  0  0  0  0  0  0  0  0  0  0  0
    3.9750    1.0357   16.2874 H   0  0  0  0  0  0  0  0  0  0  0  0
    1.7568    1.1052   17.4377 H   0  0  0  0  0  0  0  0  0  0  0  0
    1.7740    2.8715   17.3653 H   0  0  0  0  0  0  0  0  0  0  0  0
    3.8929    2.9046   18.6929 H   0  0  0  0  0  0  0  0  0  0  0  0
    3.8737    1.1384   18.7667 H   0  0  0  0  0  0  0  0  0  0  0  0
    1.6555    1.2100   19.9170 H   0  0  0  0  0  0  0  0  0  0  0  0
    1.6728    2.9761   19.8417 H   0  0  0  0  0  0  0  0  0  0  0  0
    3.7918    3.0113   21.1693 H   0  0  0  0  0  0  0  0  0  0  0  0
    3.7725    1.2452   21.2459 H   0  0  0  0  0  0  0  0  0  0  0  0
    1.5524    1.3201   22.3946 H   0  0  0  0  0  0  0  0  0  0  0  0
    1.5737    3.0863   22.3194 H   0  0  0  0  0  0  0  0  0  0  0  0
    3.6906    3.1180   23.6484 H   0  0  0  0  0  0  0  0  0  0  0  0
    3.6714    1.3518   23.7223 H   0  0  0  0  0  0  0  0  0  0  0  0
    1.4523    1.4241   24.8718 H   0  0  0  0  0  0  0  0  0  0  0  0
    1.4715    3.1903   24.7980 H   0  0  0  0  0  0  0  0  0  0  0  0
    3.5894    3.2227   26.1264 H   0  0  0  0  0  0  0  0  0  0  0  0
    3.5702    1.4565   26.2001 H   0  0  0  0  0  0  0  0  0  0  0  0
    1.3501    1.5295   27.3490 H   0  0  0  0  0  0  0  0  0  0  0  0
    1.3713    3.2957   27.2766 H   0  0  0  0  0  0  0  0  0  0  0  0
    3.4903    3.3238   28.6045 H   0  0  0  0  0  0  0  0  0  0  0  0
    3.4669    1.5577   28.6780 H   0  0  0  0  0  0  0  0  0  0  0  0
    1.2469    1.6356   29.8267 H   0  0  0  0  0  0  0  0  0  0  0  0
    1.2722    3.4018   29.7545 H   0  0  0  0  0  0  0  0  0  0  0  0
    3.3900    3.4257   31.0831 H   0  0  0  0  0  0  0  0  0  0  0  0
    3.3647    1.6596   31.1554 H   0  0  0  0  0  0  0  0  0  0  0  0
    1.1467    1.7376   32.3054 H   0  0  0  0  0  0  0  0  0  0  0  0
    1.1700    3.5037   32.2318 H   0  0  0  0  0  0  0  0  0  0  0  0
    3.2879    3.5311   33.5603 H   0  0  0  0  0  0  0  0  0  0  0  0
    3.2645    1.7650   33.6339 H   0  0  0  0  0  0  0  0  0  0  0  0
    1.0455    1.8422   34.7833 H   0  0  0  0  0  0  0  0  0  0  0  0
    1.0688    3.6084   34.7096 H   0  0  0  0  0  0  0  0  0  0  0  0
    3.1867    3.6358   36.0381 H   0  0  0  0  0  0  0  0  0  0  0  0
    3.1634    1.8697   36.1118 H   0  0  0  0  0  0  0  0  0  0  0  0
    0.9453    1.9462   37.2619 H   0  0  0  0  0  0  0  0  0  0  0  0
    0.9666    3.7123   37.1868 H   0  0  0  0  0  0  0  0  0  0  0  0
    3.0835    3.7440   38.5157 H   0  0  0  0  0  0  0  0  0  0  0  0
    3.0643    1.9778   38.5897 H   0  0  0  0  0  0  0  0  0  0  0  0
    0.8461    2.0493   39.7399 H   0  0  0  0  0  0  0  0  0  0  0  0
    0.8634    3.8155   39.6647 H   0  0  0  0  0  0  0  0  0  0  0  0
    2.9803    3.8522   40.9934 H   0  0  0  0  0  0  0  0  0  0  0  0
    2.9652    2.0860   41.0674 H   0  0  0  0  0  0  0  0  0  0  0  0
    0.7460    2.1532   42.2172 H   0  0  0  0  0  0  0  0  0  0  0  0
    0.7612    3.9194   42.1432 H   0  0  0  0  0  0  0  0  0  0  0  0
    2.8792    3.9569   43.4713 H   0  0  0  0  0  0  0  0  0  0  0  0
    2.8640    2.1907   43.5453 H   0  0  0  0  0  0  0  0  0  0  0  0
    0.6448    2.2579   44.6951 H   0  0  0  0  0  0  0  0  0  0  0  0
    0.6600    4.0241   44.6211 H   0  0  0  0  0  0  0  0  0  0  0  0
    2.7780    4.0616   45.9492 H   0  0  0  0  0  0  0  0  0  0  0  0
    2.7628    2.2953   46.0232 H   0  0  0  0  0  0  0  0  0  0  0  0
    0.5437    2.3626   47.1729 H   0  0  0  0  0  0  0  0  0  0  0  0
    0.5588    4.1288   47.0989 H   0  0  0  0  0  0  0  0  0  0  0  0
    2.6768    4.1662   48.4271 H   0  0  0  0  0  0  0  0  0  0  0  0
    2.6616    2.4000   48.5010 H   0  0  0  0  0  0  0  0  0  0  0  0
    0.4415    2.4679   49.6501 H   0  0  0  0  0  0  0  0  0  0  0  0
    0.4587    4.2342   49.5775 H   0  0  0  0  0  0  0  0  0  0  0  0
    2.5776    4.2674   50.9051 H   0  0  0  0  0  0  0  0  0  0  0  0
    2.5584    2.5012   50.9790 H   0  0  0  0  0  0  0  0  0  0  0  0
    0.3403    2.5727   52.1293 H   0  0  0  0  0  0  0  0  0  0  0  0
    0.3576    4.3388   52.0540 H   0  0  0  0  0  0  0  0  0  0  0  0
    2.4755    4.3748   53.3821 H   0  0  0  0  0  0  0  0  0  0  0  0
    2.4583    2.6086   53.4575 H   0  0  0  0  0  0  0  0  0  0  0  0
    0.2401    2.6786   54.6079 H   0  0  0  0  0  0  0  0  0  0  0  0
    0.2554    4.4447   54.5311 H   0  0  0  0  0  0  0  0  0  0  0  0
    2.3734    4.4842   55.8591 H   0  0  0  0  0  0  0  0  0  0  0  0
    2.3581    2.7181   55.9359 H   0  0  0  0  0  0  0  0  0  0  0  0
    0.1390    2.7873   57.0856 H   0  0  0  0  0  0  0  0  0  0  0  0
    0.1543    4.5534   57.0087 H   0  0  0  0  0  0  0  0  0  0  0  0
    2.2723    4.5929   58.3367 H   0  0  0  0  0  0  0  0  0  0  0  0
    2.2570    2.8268   58.4136 H   0  0  0  0  0  0  0  0  0  0  0  0
    0.0388    2.8953   59.5640 H   0  0  0  0  0  0  0  0  0  0  0  0
    0.0521    4.6614   59.4858 H   0  0  0  0  0  0  0  0  0  0  0  0
    2.1691    4.7051   60.8142 H   0  0  0  0  0  0  0  0  0  0  0  0
    2.1579    2.9390   60.8913 H   0  0  0  0  0  0  0  0  0  0  0  0
   -0.0612    3.0032   62.0412 H   0  0  0  0  0  0  0  0  0  0  0  0
   -0.0501    4.7694   61.9641 H   0  0  0  0  0  0  0  0  0  0  0  0
    2.0680    4.8138   63.2919 H   0  0  0  0  0  0  0  0  0  0  0  0
    2.0568    3.0477   63.3690 H   0  0  0  0  0  0  0  0  0  0  0  0
   -0.1624    3.1119   64.5189 H   0  0  0  0  0  0  0  0  0  0  0  0
   -0.1512    4.8780   64.4418 H   0  0  0  0  0  0  0  0  0  0  0  0
    1.9669    4.9225   65.7696 H   0  0  0  0  0  0  0  0  0  0  0  0
    1.9557    3.1564   65.8467 H   0  0  0  0  0  0  0  0  0  0  0  0
   -0.2635    3.2206   66.9966 H   0  0  0  0  0  0  0  0  0  0  0  0
   -0.2523    4.9867   66.9195 H   0  0  0  0  0  0  0  0  0  0  0  0
    1.8657    5.0312   68.2474 H   0  0  0  0  0  0  0  0  0  0  0  0
    1.8545    3.2651   68.3243 H   0  0  0  0  0  0  0  0  0  0  0  0
   -0.3656    3.3300   69.4735 H   0  0  0  0  0  0  0  0  0  0  0  0
   -0.3525    5.0962   69.3980 H   0  0  0  0  0  0  0  0  0  0  0  0
    1.7645    5.1380   70.7265 H   0  0  0  0  0  0  0  0  0  0  0  0
    1.7534    3.3717   70.8008 H   0  0  0  0  0  0  0  0  0  0  0  0
   -0.4657    3.4339   71.9507 H   0  0  0  0  0  0  0  0  0  0  0  0
   -0.4547    5.2002   71.8765 H   0  0  0  0  0  0  0  0  0  0  0  0
    1.6634    5.2426   73.2044 H   0  0  0  0  0  0  0  0  0  0  0  0
    1.6523    3.4764   73.2786 H   0  0  0  0  0  0  0  0  0  0  0  0
   -0.5669    3.5386   74.4286 H   0  0  0  0  0  0  0  0  0  0  0  0
   -0.5558    5.3048   74.3544 H   0  0  0  0  0  0  0  0  0  0  0  0
    1.5622    5.3473   75.6823 H   0  0  0  0  0  0  0  0  0  0  0  0
    1.5511    3.5811   75.7565 H   0  0  0  0  0  0  0  0  0  0  0  0
   -0.6681    3.6433   76.9065 H   0  0  0  0  0  0  0  0  0  0  0  0
   -0.6570    5.4095   76.8323 H   0  0  0  0  0  0  0  0  0  0  0  0
    1.4621    5.4512   78.1596 H   0  0  0  0  0  0  0  0  0  0  0  0
    1.4489    3.6850   78.2350 H   0  0  0  0  0  0  0  0  0  0  0  0
   -0.7702    3.7507   79.3849 H   0  0  0  0  0  0  0  0  0  0  0  0
   -0.7571    5.5169   79.3094 H   0  0  0  0  0  0  0  0  0  0  0  0
    1.3609    5.5579   80.6373 H   0  0  0  0  0  0  0  0  0  0  0  0
    1.3478    3.7917   80.7129 H   0  0  0  0  0  0  0  0  0  0  0  0
   -0.8704    3.8567   81.8635 H   0  0  0  0  0  0  0  0  0  0  0  0
   -0.8592    5.6228   81.7865 H   0  0  0  0  0  0  0  0  0  0  0  0
    1.2597    5.6665   83.1140 H   0  0  0  0  0  0  0  0  0  0  0  0
    1.2464    3.9005   83.1923 H   0  0  0  0  0  0  0  0  0  0  0  0
   -0.9731    3.9681   84.3423 H   0  0  0  0  0  0  0  0  0  0  0  0
   -0.9598    5.7344   84.2638 H   0  0  0  0  0  0  0  0  0  0  0  0
    1.1584    5.7761   85.5921 H   0  0  0  0  0  0  0  0  0  0  0  0
    1.1430    4.0110   85.6718 H   0  0  0  0  0  0  0  0  0  0  0  0
   -1.0729    4.0824   86.8355 H   0  0  0  0  0  0  0  0  0  0  0  0
   -1.0575    5.8483   86.7558 H   0  0  0  0  0  0  0  0  0  0  0  0
    1.0345    4.1210   88.1760 H   0  0  0  0  0  0  0  0  0  0  0  0
   -0.2543    5.0561   88.9621 H   0  0  0  0  0  0  0  0  0  0  0  0
    1.0499    5.8940   88.0959 H   0  0  0  0  0  0  0  0  0  0  0  0
  1  2  2  0  0  0  0
  2  3  1  0  0  0  0
  2  7  1  0  0  0  0
  3  4  1  0  0  0  0
  3 79  1  0  0  0  0
  3 80  1  0  0  0  0
  4  5  1  0  0  0  0
  5  6  1  0  0  0  0
  5 81  1  0  0  0  0
  5 82  1  0  0  0  0
  6  7  1  0  0  0  0
  6 83  1  0  0  0  0
  6 84  1  0  0  0  0
  7  8  1  0  0  0  0
  7 85  1  0  0  0  0
  8  9  1  0  0  0  0
  8 86  1  0  0  0  0
  8 87  1  0  0  0  0
  9 10  1  0  0  0  0
  9 88  1  0  0  0  0
  9 89  1  0  0  0  0
 10 11  1  0  0  0  0
 10 90  1  0  0  0  0
 10 91  1  0  0  0  0
 11 12  1  0  0  0  0
 11 92  1  0  0  0  0
 11 93  1  0  0  0  0
 12 13  1  0  0  0  0
 12 94  1  0  0  0  0
 12 95  1  0  0  0  0
 13 14  1  0  0  0  0
 13 96  1  0  0  0  0
 13 97  1  0  0  0  0
 14 15  1  0  0  0  0
 14 98  1  0  0  0  0
 14 99  1  0  0  0  0
 15 16  1  0  0  0  0
 15100  1  0  0  0  0
 15101  1  0  0  0  0
 16 17  1  0  0  0  0
 16102  1  0  0  0  0
 16103  1  0  0  0  0
 17 18  1  0  0  0  0
 17104  1  0  0  0  0
 17105  1  0  0  0  0
 18 19  1  0  0  0  0
 18106  1  0  0  0  0
 18107  1  0  0  0  0
 19 20  1  0  0  0  0
 19108  1  0  0  0  0
 19109  1  0  0  0  0
 20 21  1  0  0  0  0
 20110  1  0  0  0  0
 20111  1  0  0  0  0
 21 22  1  0  0  0  0
 21112  1  0  0  0  0
 21113  1  0  0  0  0
 22 23  1  0  0  0  0
 22114  1  0  0  0  0
 22115  1  0  0  0  0
 23 24  1  0  0  0  0
 23116  1  0  0  0  0
 23117  1  0  0  0  0
 24 25  1  0  0  0  0
 24118  1  0  0  0  0
 24119  1  0  0  0  0
 25 26  1  0  0  0  0
 25120  1  0  0  0  0
 25121  1  0  0  0  0
 26 27  1  0  0  0  0
 26122  1  0  0  0  0
 26123  1  0  0  0  0
 27 28  1  0  0  0  0
 27124  1  0  0  0  0
 27125  1  0  0  0  0
 28 29  1  0  0  0  0
 28126  1  0  0  0  0
 28127  1  0  0  0  0
 29 30  1  0  0  0  0
 29128  1  0  0  0  0
 29129  1  0  0  0  0
 30 31  1  0  0  0  0
 30130  1  0  0  0  0
 30131  1  0  0  0  0
 31 32  1  0  0  0  0
 31132  1  0  0  0  0
 31133  1  0  0  0  0
 32 33  1  0  0  0  0
 32134  1  0  0  0  0
 32135  1  0  0  0  0
 33 34  1  0  0  0  0
 33136  1  0  0  0  0
 33137  1  0  0  0  0
 34 35  1  0  0  0  0
 34138  1  0  0  0  0
 34139  1  0  0  0  0
 35 36  1  0  0  0  0
 35140  1  0  0  0  0
 35141  1  0  0  0  0
 36 37  1  0  0  0  0
 36142  1  0  0  0  0
 36143  1  0  0  0  0
 37 38  1  0  0  0  0
 37144  1  0  0  0  0
 37145  1  0  0  0  0
 38 39  1  0  0  0  0
 38146  1  0  0  0  0
 38147  1  0  0  0  0
 39 40  1  0  0  0  0
 39148  1  0  0  0  0
 39149  1  0  0  0  0
 40 41  1  0  0  0  0
 40150  1  0  0  0  0
 40151  1  0  0  0  0
 41 42  1  0  0  0  0
 41152  1  0  0  0  0
 41153  1  0  0  0  0
 42 43  1  0  0  0  0
 42154  1  0  0  0  0
 42155  1  0  0  0  0
 43 44  1  0  0  0  0
 43156  1  0  0  0  0
 43157  1  0  0  0  0
 44 45  1  0  0  0  0
 44158  1  0  0  0  0
 44159  1  0  0  0  0
 45 46  1  0  0  0  0
 45160  1  0  0  0  0
 45161  1  0  0  0  0
 46 47  1  0  0  0  0
 46162  1  0  0  0  0
 46163  1  0  0  0  0
 47 48  1  0  0  0  0
 47164  1  0  0  0  0
 47165  1  0  0  0  0
 48 49  1  0  0  0  0
 48166  1  0  0  0  0
 48167  1  0  0  0  0
 49 50  1  0  0  0  0
 49168  1  0  0  0  0
 49169  1  0  0  0  0
 50 51  1  0  0  0  0
 50170  1  0  0  0  0
 50171  1  0  0  0  0
 51 52  1  0  0  0  0
 51172  1  0  0  0  0
 51173  1  0  0  0  0
 52 53  1  0  0  0  0
 52174  1  0  0  0  0
 52175  1  0  0  0  0
 53 54  1  0  0  0  0
 53176  1  0  0  0  0
 53177  1  0  0  0  0
 54 55  1  0  0  0  0
 54178  1  0  0  0  0
 54179  1  0  0  0  0
 55 56  1  0  0  0  0
 55180  1  0  0  0  0
 55181  1  0  0  0  0
 56 57  1  0  0  0  0
 56182  1  0  0  0  0
 56183  1  0  0  0  0
 57 58  1  0  0  0  0
 57184  1  0  0  0  0
 57185  1  0  0  0  0
 58 59  1  0  0  0  0
 58186  1  0  0  0  0
 58187  1  0  0  0  0
 59 60  1  0  0  0  0
 59188  1  0  0  0  0
 59189  1  0  0  0  0
 60 61  1  0  0  0  0
 60190  1  0  0  0  0
 60191  1  0  0  0  0
 61 62  1  0  0  0  0
 61192  1  0  0  0  0
 61193  1  0  0  0  0
 62 63  1  0  0  0  0
 62194  1  0  0  0  0
 62195  1  0  0  0  0
 63 64  1  0  0  0  0
 63196  1  0  0  0  0
 63197  1  0  0  0  0
 64 65  1  0  0  0  0
 64198  1  0  0  0  0
 64199  1  0  0  0  0
 65 66  1  0  0  0  0
 65200  1  0  0  0  0
 65201  1  0  0  0  0
 66 67  1  0  0  0  0
 66202  1  0  0  0  0
 66203  1  0  0  0  0
 67 68  1  0  0  0  0
 67204  1  0  0  0  0
 67205  1  0  0  0  0
 68 69  1  0  0  0  0
 68206  1  0  0  0  0
 68207  1  0  0  0  0
 69 70  1  0  0  0  0
 69208  1  0  0  0  0
 69209  1  0  0  0  0
 70 71  1  0  0  0  0
 70210  1  0  0  0  0
 70211  1  0  0  0  0
 71 72  1  0  0  0  0
 71212  1  0  0  0  0
 71213  1  0  0  0  0
 72 73  1  0  0  0  0
 72214  1  0  0  0  0
 72215  1  0  0  0  0
 73 74  1  0  0  0  0
 73216  1  0  0  0  0
 73217  1  0  0  0  0
 74 75  1  0  0  0  0
 74218  1  0  0  0  0
 74219  1  0  0  0  0
 75 76  1  0  0  0  0
 75220  1  0  0  0  0
 75221  1  0  0  0  0
 76 77  1  0  0  0  0
 76222  1  0  0  0  0
 76223  1  0  0  0  0
 77 78  1  0  0  0  0
 77224  1  0  0  0  0
 77225  1  0  0  0  0
 78226  1  0  0  0  0
 78227  1  0  0  0  0
 78228  1  0  0  0  0
M  END
$$$$
