
 OpenBabel04232216443D

 51 52  0  0  0  0  0  0  0  0999 V2000
    3.2508    1.2101   -2.6724 C   0  0  0  0  0  0  0  0  0  0  0  0
    3.7563    0.1202   -3.6661 C   0  0  0  0  0  0  0  0  0  0  0  0
    3.5772   -1.0839   -3.0607 C   0  0  0  0  0  0  0  0  0  0  0  0
    2.1725   -1.6002   -2.8256 C   0  0  0  0  0  0  0  0  0  0  0  0
    4.5049   -1.3662   -2.0650 N   0  0  0  0  0  0  0  0  0  0  0  0
    5.5294   -2.0437   -2.4994 C   0  0  0  0  0  0  0  0  0  0  0  0
    5.2697   -3.0695   -3.6002 C   0  0  0  0  0  0  0  0  0  0  0  0
    6.8561   -1.7521   -2.1175 N   0  0  0  0  0  0  0  0  0  0  0  0
    7.0826   -0.8537   -0.9798 C   0  0  0  0  0  0  0  0  0  0  0  0
    7.7068   -1.6144   -3.1820 N   0  0  0  0  0  0  0  0  0  0  0  0
    8.9278   -1.2221   -3.2075 C   0  0  0  0  0  0  0  0  0  0  0  0
    9.9139   -0.9136   -2.3089 N   0  0  0  0  0  0  0  0  0  0  0  0
   10.7966   -0.9413   -3.2508 C   0  0  0  0  0  0  0  0  0  0  0  0
   12.2756   -0.8909   -3.2507 C   0  0  0  0  0  0  0  0  0  0  0  0
    9.8668   -1.1708   -4.3042 C   0  0  0  0  0  0  0  0  0  0  0  0
    9.7717   -1.4410   -5.6130 C   0  0  0  0  0  0  0  0  0  0  0  0
   10.9891   -1.6926   -6.4848 C   0  0  0  0  0  0  0  0  0  0  0  0
    8.5494   -1.8859   -6.1136 N   0  0  0  0  0  0  0  0  0  0  0  0
    8.0603   -3.1765   -5.6010 C   0  0  0  0  0  0  0  0  0  0  0  0
    7.5746   -0.9851   -6.6866 C   0  0  0  0  0  0  0  0  0  0  0  0
    6.2667   -0.8921   -6.2861 C   0  0  0  0  0  0  0  0  0  0  0  0
    5.2457   -1.6663   -7.0813 C   0  0  0  0  0  0  0  0  0  0  0  0
    5.9276    0.1446   -5.2736 C   0  0  0  0  0  0  0  0  0  0  0  0
    5.0244    0.5371   -4.3393 C   0  0  0  0  0  0  0  0  0  0  0  0
    2.1678    1.3401   -2.7310 H   0  0  0  0  0  0  0  0  0  0  0  0
    3.7324    2.1839   -2.7866 H   0  0  0  0  0  0  0  0  0  0  0  0
    3.4737    0.9153   -1.6260 H   0  0  0  0  0  0  0  0  0  0  0  0
    1.8196   -1.4045   -1.8090 H   0  0  0  0  0  0  0  0  0  0  0  0
    2.1299   -2.6804   -3.0053 H   0  0  0  0  0  0  0  0  0  0  0  0
    1.4624   -1.1433   -3.5285 H   0  0  0  0  0  0  0  0  0  0  0  0
    4.3184   -3.5880   -3.4389 H   0  0  0  0  0  0  0  0  0  0  0  0
    6.0509   -3.8378   -3.6262 H   0  0  0  0  0  0  0  0  0  0  0  0
    5.1974   -2.5678   -4.5367 H   0  0  0  0  0  0  0  0  0  0  0  0
    6.1920   -0.7463   -0.3499 H   0  0  0  0  0  0  0  0  0  0  0  0
    7.3827    0.1503   -1.3001 H   0  0  0  0  0  0  0  0  0  0  0  0
    7.8688   -1.2746   -0.3464 H   0  0  0  0  0  0  0  0  0  0  0  0
   12.6449   -0.5905   -2.2631 H   0  0  0  0  0  0  0  0  0  0  0  0
   12.6228   -0.1763   -3.9959 H   0  0  0  0  0  0  0  0  0  0  0  0
   12.6929   -1.8698   -3.4848 H   0  0  0  0  0  0  0  0  0  0  0  0
   11.9231   -1.5527   -5.9422 H   0  0  0  0  0  0  0  0  0  0  0  0
   10.9915   -1.0389   -7.3573 H   0  0  0  0  0  0  0  0  0  0  0  0
   10.9803   -2.7331   -6.8301 H   0  0  0  0  0  0  0  0  0  0  0  0
    8.7759   -3.6659   -4.9303 H   0  0  0  0  0  0  0  0  0  0  0  0
    7.8041   -3.8647   -6.4096 H   0  0  0  0  0  0  0  0  0  0  0  0
    7.1634   -3.0052   -5.0333 H   0  0  0  0  0  0  0  0  0  0  0  0
    7.7003   -1.2938   -7.7312 H   0  0  0  0  0  0  0  0  0  0  0  0
    4.6223   -2.3156   -6.4555 H   0  0  0  0  0  0  0  0  0  0  0  0
    5.7525   -2.3669   -7.7730 H   0  0  0  0  0  0  0  0  0  0  0  0
    4.6041   -1.0331   -7.6884 H   0  0  0  0  0  0  0  0  0  0  0  0
    6.7455    0.8711   -5.3177 H   0  0  0  0  0  0  0  0  0  0  0  0
    5.3464    1.4862   -3.8966 H   0  0  0  0  0  0  0  0  0  0  0  0
  1  2  1  0  0  0  0
  1 25  1  0  0  0  0
  1 26  1  0  0  0  0
  1 27  1  0  0  0  0
  2  3  2  3  0  0  0
  2 24  1  0  0  0  0
  3  4  1  0  0  0  0
  3  5  1  0  0  0  0
  4 28  1  0  0  0  0
  4 29  1  0  0  0  0
  4 30  1  0  0  0  0
  5  6  2  3  0  0  0
  6  7  1  0  0  0  0
  6  8  1  0  0  0  0
  7 31  1  0  0  0  0
  7 32  1  0  0  0  0
  7 33  1  0  0  0  0
  8  9  1  0  0  0  0
  8 10  1  0  0  0  0
  9 34  1  0  0  0  0
  9 35  1  0  0  0  0
  9 36  1  0  0  0  0
 10 11  2  3  0  0  0
 11 12  1  0  0  0  0
 11 15  1  0  0  0  0
 12 13  2  0  0  0  0
 13 14  1  0  0  0  0
 13 15  1  0  0  0  0
 14 37  1  0  0  0  0
 14 38  1  0  0  0  0
 14 39  1  0  0  0  0
 15 16  2  3  0  0  0
 16 17  1  0  0  0  0
 16 18  1  0  0  0  0
 17 40  1  0  0  0  0
 17 41  1  0  0  0  0
 17 42  1  0  0  0  0
 18 19  1  0  0  0  0
 18 20  1  0  0  0  0
 19 43  1  0  0  0  0
 19 44  1  0  0  0  0
 19 45  1  0  0  0  0
 20 21  2  3  0  0  0
 20 46  1  0  0  0  0
 21 22  1  0  0  0  0
 21 23  1  0  0  0  0
 22 47  1  0  0  0  0
 22 48  1  0  0  0  0
 22 49  1  0  0  0  0
 23 24  2  3  0  0  0
 23 50  1  0  0  0  0
 24 51  1  0  0  0  0
M  END
$$$$
