
 OpenBabel04232217033D

 77 76  0  0  0  0  0  0  0  0999 V2000
    1.0244    0.1118    0.0102 S   0  0  0  0  0  0  0  0  0  0  0  0
    2.7225    0.1470   -0.0205 O   0  0  0  0  0  0  0  0  0  0  0  0
    3.2171    1.2951   -1.1203 S   0  0  0  0  0  0  0  0  0  0  0  0
    5.3149    1.2050   -1.0341 S   0  0  0  0  0  0  0  0  0  0  0  0
    6.0308    2.6454   -2.4140 S   0  0  0  0  0  0  0  0  0  0  0  0
    8.1357    2.6477   -2.4163 S   0  0  0  0  0  0  0  0  0  0  0  0
    8.8219    4.0921   -3.8000 S   0  0  0  0  0  0  0  0  0  0  0  0
   10.9341    4.0857   -3.7939 S   0  0  0  0  0  0  0  0  0  0  0  0
   11.6260    5.5254   -5.1732 S   0  0  0  0  0  0  0  0  0  0  0  0
   13.7361    5.5160   -5.1642 S   0  0  0  0  0  0  0  0  0  0  0  0
   14.4270    6.9554   -6.5432 S   0  0  0  0  0  0  0  0  0  0  0  0
   16.5364    6.9458   -6.5340 S   0  0  0  0  0  0  0  0  0  0  0  0
   17.2270    8.3851   -7.9129 S   0  0  0  0  0  0  0  0  0  0  0  0
   19.3364    8.3755   -7.9037 S   0  0  0  0  0  0  0  0  0  0  0  0
   20.0270    9.8147   -9.2826 S   0  0  0  0  0  0  0  0  0  0  0  0
   22.1364    9.8052   -9.2734 S   0  0  0  0  0  0  0  0  0  0  0  0
   22.8270   11.2444  -10.6523 S   0  0  0  0  0  0  0  0  0  0  0  0
   24.9364   11.2348  -10.6431 S   0  0  0  0  0  0  0  0  0  0  0  0
   25.6270   12.6741  -12.0220 S   0  0  0  0  0  0  0  0  0  0  0  0
   27.7364   12.6645  -12.0128 S   0  0  0  0  0  0  0  0  0  0  0  0
   28.4270   14.1037  -13.3917 S   0  0  0  0  0  0  0  0  0  0  0  0
   30.5363   14.0942  -13.3825 S   0  0  0  0  0  0  0  0  0  0  0  0
   31.2270   15.5334  -14.7614 S   0  0  0  0  0  0  0  0  0  0  0  0
   33.3363   15.5238  -14.7522 S   0  0  0  0  0  0  0  0  0  0  0  0
   34.0270   16.9631  -16.1311 S   0  0  0  0  0  0  0  0  0  0  0  0
   36.1363   16.9535  -16.1219 S   0  0  0  0  0  0  0  0  0  0  0  0
   36.8270   18.3927  -17.5007 S   0  0  0  0  0  0  0  0  0  0  0  0
   38.9363   18.3832  -17.4916 S   0  0  0  0  0  0  0  0  0  0  0  0
   39.6269   19.8224  -18.8704 S   0  0  0  0  0  0  0  0  0  0  0  0
   41.7363   19.8128  -18.8613 S   0  0  0  0  0  0  0  0  0  0  0  0
   42.4269   21.2521  -20.2401 S   0  0  0  0  0  0  0  0  0  0  0  0
   44.5363   21.2425  -20.2310 S   0  0  0  0  0  0  0  0  0  0  0  0
   45.2269   22.6817  -21.6098 S   0  0  0  0  0  0  0  0  0  0  0  0
   47.3363   22.6722  -21.6007 S   0  0  0  0  0  0  0  0  0  0  0  0
   48.0269   24.1114  -22.9795 S   0  0  0  0  0  0  0  0  0  0  0  0
   50.1363   24.1018  -22.9704 S   0  0  0  0  0  0  0  0  0  0  0  0
   50.8269   25.5411  -24.3492 S   0  0  0  0  0  0  0  0  0  0  0  0
   52.9363   25.5315  -24.3400 S   0  0  0  0  0  0  0  0  0  0  0  0
   53.6269   26.9707  -25.7189 S   0  0  0  0  0  0  0  0  0  0  0  0
   55.7363   26.9612  -25.7097 S   0  0  0  0  0  0  0  0  0  0  0  0
   56.4269   28.4004  -27.0886 S   0  0  0  0  0  0  0  0  0  0  0  0
   58.5363   28.3908  -27.0794 S   0  0  0  0  0  0  0  0  0  0  0  0
   59.2269   29.8301  -28.4583 S   0  0  0  0  0  0  0  0  0  0  0  0
   61.3363   29.8205  -28.4491 S   0  0  0  0  0  0  0  0  0  0  0  0
   62.0269   31.2597  -29.8280 S   0  0  0  0  0  0  0  0  0  0  0  0
   64.1363   31.2502  -29.8188 S   0  0  0  0  0  0  0  0  0  0  0  0
   64.8269   32.6894  -31.1977 S   0  0  0  0  0  0  0  0  0  0  0  0
   66.9362   32.6798  -31.1885 S   0  0  0  0  0  0  0  0  0  0  0  0
   67.6269   34.1191  -32.5674 S   0  0  0  0  0  0  0  0  0  0  0  0
   69.7362   34.1095  -32.5582 S   0  0  0  0  0  0  0  0  0  0  0  0
   70.4269   35.5488  -33.9371 S   0  0  0  0  0  0  0  0  0  0  0  0
   72.5362   35.5392  -33.9279 S   0  0  0  0  0  0  0  0  0  0  0  0
   73.2269   36.9784  -35.3068 S   0  0  0  0  0  0  0  0  0  0  0  0
   75.3362   36.9689  -35.2976 S   0  0  0  0  0  0  0  0  0  0  0  0
   76.0268   38.4081  -36.6765 S   0  0  0  0  0  0  0  0  0  0  0  0
   78.1362   38.3985  -36.6673 S   0  0  0  0  0  0  0  0  0  0  0  0
   78.8268   39.8378  -38.0461 S   0  0  0  0  0  0  0  0  0  0  0  0
   80.9362   39.8282  -38.0370 S   0  0  0  0  0  0  0  0  0  0  0  0
   81.6268   41.2674  -39.4158 S   0  0  0  0  0  0  0  0  0  0  0  0
   83.7362   41.2579  -39.4067 S   0  0  0  0  0  0  0  0  0  0  0  0
   84.4268   42.6971  -40.7855 S   0  0  0  0  0  0  0  0  0  0  0  0
   86.5362   42.6875  -40.7764 S   0  0  0  0  0  0  0  0  0  0  0  0
   87.2268   44.1268  -42.1552 S   0  0  0  0  0  0  0  0  0  0  0  0
   89.3362   44.1172  -42.1461 S   0  0  0  0  0  0  0  0  0  0  0  0
   90.0268   45.5564  -43.5249 S   0  0  0  0  0  0  0  0  0  0  0  0
   92.1362   45.5469  -43.5157 S   0  0  0  0  0  0  0  0  0  0  0  0
   92.8267   46.9861  -44.8946 S   0  0  0  0  0  0  0  0  0  0  0  0
   94.9355   46.9761  -44.8850 S   0  0  0  0  0  0  0  0  0  0  0  0
   95.6243   48.4140  -46.2626 S   0  0  0  0  0  0  0  0  0  0  0  0
   97.7281   48.4031  -46.2520 S   0  0  0  0  0  0  0  0  0  0  0  0
   98.4073   49.8388  -47.6276 S   0  0  0  0  0  0  0  0  0  0  0  0
  100.5019   49.8071  -47.6138 S   0  0  0  0  0  0  0  0  0  0  0  0
  101.1853   51.2570  -48.9440 S   0  0  0  0  0  0  0  0  0  0  0  0
  103.2733   51.2081  -48.9387 S   0  0  0  0  0  0  0  0  0  0  0  0
  103.8930   51.7150  -47.0358 S   0  0  0  0  0  0  0  0  0  0  0  0
    0.7208   -0.8333    0.9158 H   0  0  0  0  0  0  0  0  0  0  0  0
  105.2471   51.6747  -47.1026 H   0  0  0  0  0  0  0  0  0  0  0  0
  1  2  1  0  0  0  0
  1 76  1  0  0  0  0
  2  3  1  0  0  0  0
  3  4  1  0  0  0  0
  4  5  1  0  0  0  0
  5  6  1  0  0  0  0
  6  7  1  0  0  0  0
  7  8  1  0  0  0  0
  8  9  1  0  0  0  0
  9 10  1  0  0  0  0
 10 11  1  0  0  0  0
 11 12  1  0  0  0  0
 12 13  1  0  0  0  0
 13 14  1  0  0  0  0
 14 15  1  0  0  0  0
 15 16  1  0  0  0  0
 16 17  1  0  0  0  0
 17 18  1  0  0  0  0
 18 19  1  0  0  0  0
 19 20  1  0  0  0  0
 20 21  1  0  0  0  0
 21 22  1  0  0  0  0
 22 23  1  0  0  0  0
 23 24  1  0  0  0  0
 24 25  1  0  0  0  0
 25 26  1  0  0  0  0
 26 27  1  0  0  0  0
 27 28  1  0  0  0  0
 28 29  1  0  0  0  0
 29 30  1  0  0  0  0
 30 31  1  0  0  0  0
 31 32  1  0  0  0  0
 32 33  1  0  0  0  0
 33 34  1  0  0  0  0
 34 35  1  0  0  0  0
 35 36  1  0  0  0  0
 36 37  1  0  0  0  0
 37 38  1  0  0  0  0
 38 39  1  0  0  0  0
 39 40  1  0  0  0  0
 40 41  1  0  0  0  0
 41 42  1  0  0  0  0
 42 43  1  0  0  0  0
 43 44  1  0  0  0  0
 44 45  1  0  0  0  0
 45 46  1  0  0  0  0
 46 47  1  0  0  0  0
 47 48  1  0  0  0  0
 48 49  1  0  0  0  0
 49 50  1  0  0  0  0
 50 51  1  0  0  0  0
 51 52  1  0  0  0  0
 52 53  1  0  0  0  0
 53 54  1  0  0  0  0
 54 55  1  0  0  0  0
 55 56  1  0  0  0  0
 56 57  1  0  0  0  0
 57 58  1  0  0  0  0
 58 59  1  0  0  0  0
 59 60  1  0  0  0  0
 60 61  1  0  0  0  0
 61 62  1  0  0  0  0
 62 63  1  0  0  0  0
 63 64  1  0  0  0  0
 64 65  1  0  0  0  0
 65 66  1  0  0  0  0
 66 67  1  0  0  0  0
 67 68  1  0  0  0  0
 68 69  1  0  0  0  0
 69 70  1  0  0  0  0
 70 71  1  0  0  0  0
 71 72  1  0  0  0  0
 72 73  1  0  0  0  0
 73 74  1  0  0  0  0
 74 75  1  0  0  0  0
 75 77  1  0  0  0  0
M  END
$$$$
