
 OpenBabel04232217013D

214213  0  0  1  0  0  0  0  0999 V2000
   16.2312   -5.5268   -8.7790 O   0  0  0  0  0  0  0  0  0  0  0  0
   17.2574   -5.4295   -7.7192 N   0  0  0  0  0  0  0  0  0  0  0  0
   17.6758   -4.0288   -7.4956 C   0  0  3  0  0  0  0  0  0  0  0  0
   17.0637   -2.9732   -6.4442 C   0  0  0  0  0  0  0  0  0  0  0  0
   19.0774   -4.0383   -7.2055 O   0  0  0  0  0  0  0  0  0  0  0  0
   19.7192   -4.8831   -8.2294 O   0  0  0  0  0  0  0  0  0  0  0  0
   19.2880   -4.5438   -9.5910 O   0  0  0  0  0  0  0  0  0  0  0  0
   19.6037   -3.1674   -9.7613 C   0  0  0  0  0  0  0  0  0  0  0  0
   19.1340   -2.6495  -11.0008 O   0  0  0  0  0  0  0  0  0  0  0  0
   17.6993   -2.5685  -11.0300 C   0  0  0  0  0  0  0  0  0  0  0  0
   17.1945   -1.6712  -10.0368 O   0  0  0  0  0  0  0  0  0  0  0  0
   15.7681   -1.6360   -9.9859 C   0  0  0  0  0  0  0  0  0  0  0  0
   15.0489   -2.8767   -9.7080 O   0  0  0  0  0  0  0  0  0  0  0  0
   15.2453   -3.2064   -8.2578 O   0  0  0  0  0  0  0  0  0  0  0  0
   14.4229   -4.4160   -7.7329 O   0  0  0  0  0  0  0  0  0  0  0  0
   15.0689   -5.1486   -6.5372 C   0  0  0  0  0  0  0  0  0  0  0  0
   15.0548   -6.7211   -6.4516 O   0  0  0  0  0  0  0  0  0  0  0  0
   15.7199   -7.7382   -7.4388 C   0  0  0  0  0  0  0  0  0  0  0  0
   17.1425   -8.1114   -7.4486 O   0  0  0  0  0  0  0  0  0  0  0  0
   17.6500   -8.5095   -8.7529 C   0  0  0  0  0  0  0  0  0  0  0  0
   19.0802   -8.3727   -8.8231 O   0  0  0  0  0  0  0  0  0  0  0  0
   19.6174   -9.2436   -9.7991 C   0  0  0  0  0  0  0  0  0  0  0  0
   21.1193   -9.1231   -9.7492 C   0  0  0  0  0  0  0  0  0  0  0  0
   21.6757  -10.1384  -10.7239 C   0  0  0  0  0  0  0  0  0  0  0  0
   23.1676  -10.1308  -10.7129 C   0  0  0  0  0  0  0  0  0  0  0  0
   23.6505  -11.1399  -11.7393 C   0  0  0  0  0  0  0  0  0  0  0  0
   25.1583  -11.1219  -11.7455 C   0  0  0  0  0  0  0  0  0  0  0  0
   25.6628  -12.1473  -12.7442 C   0  0  0  0  0  0  0  0  0  0  0  0
   27.1883  -12.1648  -12.7458 C   0  0  0  0  0  0  0  0  0  0  0  0
   27.7083  -13.1657  -13.7522 C   0  0  0  0  0  0  0  0  0  0  0  0
   29.2342  -13.2013  -13.7729 C   0  0  0  0  0  0  0  0  0  0  0  0
   29.6977  -14.1900  -14.7567 C   0  0  0  0  0  0  0  0  0  0  0  0
   31.2262  -14.1852  -14.7984 C   0  0  0  0  0  0  0  0  0  0  0  0
   31.7194  -15.1819  -15.8225 C   0  0  0  0  0  0  0  0  0  0  0  0
   33.2149  -15.1837  -15.8156 C   0  0  0  0  0  0  0  0  0  0  0  0
   33.7524  -16.1481  -16.8549 C   0  0  0  0  0  0  0  0  0  0  0  0
   35.2691  -16.1576  -16.8545 C   0  0  0  0  0  0  0  0  0  0  0  0
   35.7828  -17.1398  -17.8890 C   0  0  0  0  0  0  0  0  0  0  0  0
   37.2991  -17.1547  -17.8938 C   0  0  0  0  0  0  0  0  0  0  0  0
   37.8148  -18.1462  -18.9286 C   0  0  0  0  0  0  0  0  0  0  0  0
   39.3330  -18.1486  -18.9309 C   0  0  0  0  0  0  0  0  0  0  0  0
   39.8414  -19.1434  -19.9568 C   0  0  0  0  0  0  0  0  0  0  0  0
   41.3487  -19.1432  -19.9624 C   0  0  0  0  0  0  0  0  0  0  0  0
   41.8693  -20.1304  -21.0088 C   0  0  0  0  0  0  0  0  0  0  0  0
   43.3889  -20.1373  -20.9984 C   0  0  0  0  0  0  0  0  0  0  0  0
   43.8997  -21.1268  -22.0293 C   0  0  0  0  0  0  0  0  0  0  0  0
   45.4161  -21.1298  -22.0323 C   0  0  0  0  0  0  0  0  0  0  0  0
   45.9260  -22.1203  -23.0611 C   0  0  0  0  0  0  0  0  0  0  0  0
   47.4426  -22.1223  -23.0658 C   0  0  0  0  0  0  0  0  0  0  0  0
   47.9527  -23.1116  -24.0960 C   0  0  0  0  0  0  0  0  0  0  0  0
   49.4693  -23.1147  -24.0996 C   0  0  0  0  0  0  0  0  0  0  0  0
   49.9793  -24.1040  -25.1299 C   0  0  0  0  0  0  0  0  0  0  0  0
   51.4960  -24.1060  -25.1346 C   0  0  0  0  0  0  0  0  0  0  0  0
   52.0060  -25.0967  -26.1635 C   0  0  0  0  0  0  0  0  0  0  0  0
   53.5226  -25.1000  -26.1669 C   0  0  0  0  0  0  0  0  0  0  0  0
   54.0327  -26.0921  -27.1944 C   0  0  0  0  0  0  0  0  0  0  0  0
   55.5493  -26.0954  -27.1978 C   0  0  0  0  0  0  0  0  0  0  0  0
   56.0593  -27.0862  -28.2266 C   0  0  0  0  0  0  0  0  0  0  0  0
   57.5759  -27.0895  -28.2301 C   0  0  0  0  0  0  0  0  0  0  0  0
   58.0860  -28.0802  -29.2589 C   0  0  0  0  0  0  0  0  0  0  0  0
   59.6027  -28.0835  -29.2624 C   0  0  0  0  0  0  0  0  0  0  0  0
   60.1127  -29.0742  -30.2912 C   0  0  0  0  0  0  0  0  0  0  0  0
   61.6293  -29.0775  -30.2947 C   0  0  0  0  0  0  0  0  0  0  0  0
   62.1393  -30.0683  -31.3235 C   0  0  0  0  0  0  0  0  0  0  0  0
   63.6560  -30.0716  -31.3269 C   0  0  0  0  0  0  0  0  0  0  0  0
   64.1661  -31.0623  -32.3559 C   0  0  0  0  0  0  0  0  0  0  0  0
   65.6827  -31.0656  -32.3594 C   0  0  0  0  0  0  0  0  0  0  0  0
   66.1929  -32.0550  -33.3896 C   0  0  0  0  0  0  0  0  0  0  0  0
   67.7097  -32.0584  -33.3932 C   0  0  0  0  0  0  0  0  0  0  0  0
   68.2202  -33.0478  -34.4236 C   0  0  0  0  0  0  0  0  0  0  0  0
   69.7373  -33.0515  -34.4275 C   0  0  0  0  0  0  0  0  0  0  0  0
   70.2487  -34.0411  -35.4580 C   0  0  0  0  0  0  0  0  0  0  0  0
   71.7665  -34.0455  -35.4626 C   0  0  0  0  0  0  0  0  0  0  0  0
   72.2793  -35.0370  -36.4923 C   0  0  0  0  0  0  0  0  0  0  0  0
   73.7982  -35.0435  -36.4991 C   0  0  0  0  0  0  0  0  0  0  0  0
   74.3143  -36.0360  -37.5298 C   0  0  0  0  0  0  0  0  0  0  0  0
   75.8355  -36.0426  -37.5394 C   0  0  0  0  0  0  0  0  0  0  0  0
   76.3637  -37.0351  -38.5673 C   0  0  0  0  0  0  0  0  0  0  0  0
   77.8804  -37.0402  -38.5756 C   0  0  0  0  0  0  0  0  0  0  0  0
   15.4656   -5.8442   -8.3428 H   0  0  0  0  0  0  0  0  0  0  0  0
   17.9744   -5.9262   -8.2454 H   0  0  0  0  0  0  0  0  0  0  0  0
   17.5085   -3.5726   -8.4627 H   0  0  0  0  0  0  0  0  0  0  0  0
   17.2785   -3.2258   -5.4012 H   0  0  0  0  0  0  0  0  0  0  0  0
   15.9798   -2.7885   -6.4366 H   0  0  0  0  0  0  0  0  0  0  0  0
   17.4645   -1.9695   -6.6318 H   0  0  0  0  0  0  0  0  0  0  0  0
   20.6872   -3.0957   -9.7107 H   0  0  0  0  0  0  0  0  0  0  0  0
   19.2109   -2.5339   -8.9556 H   0  0  0  0  0  0  0  0  0  0  0  0
   17.2802   -3.5726  -10.8959 H   0  0  0  0  0  0  0  0  0  0  0  0
   17.4345   -2.2122  -12.0197 H   0  0  0  0  0  0  0  0  0  0  0  0
   15.4415   -1.2888  -10.9996 H   0  0  0  0  0  0  0  0  0  0  0  0
   15.4558   -0.8259   -9.3298 H   0  0  0  0  0  0  0  0  0  0  0  0
   14.4806   -4.7290   -5.7031 H   0  0  0  0  0  0  0  0  0  0  0  0
   16.0324   -4.8472   -6.1260 H   0  0  0  0  0  0  0  0  0  0  0  0
   15.3419   -7.6403   -8.4660 H   0  0  0  0  0  0  0  0  0  0  0  0
   15.2642   -8.6950   -7.1477 H   0  0  0  0  0  0  0  0  0  0  0  0
   17.2365   -7.9527   -9.6099 H   0  0  0  0  0  0  0  0  0  0  0  0
   17.4150   -9.5705   -8.9114 H   0  0  0  0  0  0  0  0  0  0  0  0
   19.2504   -8.9924  -10.8025 H   0  0  0  0  0  0  0  0  0  0  0  0
   19.3403  -10.2788   -9.5648 H   0  0  0  0  0  0  0  0  0  0  0  0
   21.4804   -9.3071   -8.7275 H   0  0  0  0  0  0  0  0  0  0  0  0
   21.4205   -8.1012  -10.0091 H   0  0  0  0  0  0  0  0  0  0  0  0
   21.2898   -9.9121  -11.7331 H   0  0  0  0  0  0  0  0  0  0  0  0
   21.2933  -11.1386  -10.4624 H   0  0  0  0  0  0  0  0  0  0  0  0
   23.5256  -10.4050   -9.7134 H   0  0  0  0  0  0  0  0  0  0  0  0
   23.5638   -9.1154  -10.9507 H   0  0  0  0  0  0  0  0  0  0  0  0
   23.2444  -10.8753  -12.7260 H   0  0  0  0  0  0  0  0  0  0  0  0
   23.2702  -12.1383  -11.4877 H   0  0  0  0  0  0  0  0  0  0  0  0
   25.5272  -11.3360  -10.7332 H   0  0  0  0  0  0  0  0  0  0  0  0
   25.5146  -10.1162  -12.0051 H   0  0  0  0  0  0  0  0  0  0  0  0
   25.2947  -11.8918  -13.7433 H   0  0  0  0  0  0  0  0  0  0  0  0
   25.2506  -13.1339  -12.4951 H   0  0  0  0  0  0  0  0  0  0  0  0
   27.5472  -12.4210  -11.7440 H   0  0  0  0  0  0  0  0  0  0  0  0
   27.5559  -11.1632  -12.9838 H   0  0  0  0  0  0  0  0  0  0  0  0
   27.3815  -12.9066  -14.7690 H   0  0  0  0  0  0  0  0  0  0  0  0
   27.3309  -14.1623  -13.5367 H   0  0  0  0  0  0  0  0  0  0  0  0
   29.6062  -13.4597  -12.7856 H   0  0  0  0  0  0  0  0  0  0  0  0
   29.6003  -12.1913  -14.0385 H   0  0  0  0  0  0  0  0  0  0  0  0
   29.3456  -13.8825  -15.7582 H   0  0  0  0  0  0  0  0  0  0  0  0
   29.3373  -15.2062  -14.5756 H   0  0  0  0  0  0  0  0  0  0  0  0
   31.6177  -14.4444  -13.8111 H   0  0  0  0  0  0  0  0  0  0  0  0
   31.6181  -13.1812  -15.0371 H   0  0  0  0  0  0  0  0  0  0  0  0
   31.3440  -14.9133  -16.8220 H   0  0  0  0  0  0  0  0  0  0  0  0
   31.3280  -16.1887  -15.5825 H   0  0  0  0  0  0  0  0  0  0  0  0
   33.6260  -15.4242  -14.8163 H   0  0  0  0  0  0  0  0  0  0  0  0
   33.5641  -14.1557  -16.0327 H   0  0  0  0  0  0  0  0  0  0  0  0
   33.3725  -15.8721  -17.8526 H   0  0  0  0  0  0  0  0  0  0  0  0
   33.3758  -17.1511  -16.6422 H   0  0  0  0  0  0  0  0  0  0  0  0
   35.6395  -16.4253  -15.8579 H   0  0  0  0  0  0  0  0  0  0  0  0
   35.6449  -15.1546  -17.0891 H   0  0  0  0  0  0  0  0  0  0  0  0
   35.4019  -16.8658  -18.8769 H   0  0  0  0  0  0  0  0  0  0  0  0
   35.4355  -18.1578  -17.6787 H   0  0  0  0  0  0  0  0  0  0  0  0
   37.6804  -17.4245  -16.9010 H   0  0  0  0  0  0  0  0  0  0  0  0
   37.6776  -16.1500  -18.1253 H   0  0  0  0  0  0  0  0  0  0  0  0
   37.4408  -17.8783  -19.9220 H   0  0  0  0  0  0  0  0  0  0  0  0
   37.4411  -19.1515  -18.6987 H   0  0  0  0  0  0  0  0  0  0  0  0
   39.7083  -18.4187  -17.9366 H   0  0  0  0  0  0  0  0  0  0  0  0
   39.7097  -17.1474  -19.1594 H   0  0  0  0  0  0  0  0  0  0  0  0
   39.4687  -18.8747  -20.9515 H   0  0  0  0  0  0  0  0  0  0  0  0
   39.4682  -20.1484  -19.7291 H   0  0  0  0  0  0  0  0  0  0  0  0
   41.7513  -19.4212  -18.9647 H   0  0  0  0  0  0  0  0  0  0  0  0
   41.7395  -18.1350  -20.1942 H   0  0  0  0  0  0  0  0  0  0  0  0
   41.4957  -19.8659  -21.9899 H   0  0  0  0  0  0  0  0  0  0  0  0
   41.4972  -21.1390  -20.7668 H   0  0  0  0  0  0  0  0  0  0  0  0
   43.7652  -20.4055  -20.0040 H   0  0  0  0  0  0  0  0  0  0  0  0
   43.7656  -19.1318  -21.2274 H   0  0  0  0  0  0  0  0  0  0  0  0
   43.5239  -20.8583  -23.0235 H   0  0  0  0  0  0  0  0  0  0  0  0
   43.5236  -22.1315  -21.8000 H   0  0  0  0  0  0  0  0  0  0  0  0
   45.7920  -21.3973  -21.0369 H   0  0  0  0  0  0  0  0  0  0  0  0
   45.7915  -20.1249  -22.2617 H   0  0  0  0  0  0  0  0  0  0  0  0
   45.5491  -21.8536  -24.0562 H   0  0  0  0  0  0  0  0  0  0  0  0
   45.5513  -23.1253  -22.8308 H   0  0  0  0  0  0  0  0  0  0  0  0
   47.8195  -22.3902  -22.0710 H   0  0  0  0  0  0  0  0  0  0  0  0
   47.8174  -21.1171  -23.2950 H   0  0  0  0  0  0  0  0  0  0  0  0
   47.5768  -22.8427  -25.0910 H   0  0  0  0  0  0  0  0  0  0  0  0
   47.5770  -24.1166  -23.8678 H   0  0  0  0  0  0  0  0  0  0  0  0
   49.8452  -23.3836  -23.1047 H   0  0  0  0  0  0  0  0  0  0  0  0
   49.8450  -22.1097  -24.3279 H   0  0  0  0  0  0  0  0  0  0  0  0
   49.6025  -23.8361  -26.1246 H   0  0  0  0  0  0  0  0  0  0  0  0
   49.6046  -25.1093  -24.9007 H   0  0  0  0  0  0  0  0  0  0  0  0
   51.8728  -24.3726  -24.1395 H   0  0  0  0  0  0  0  0  0  0  0  0
   51.8707  -23.1010  -25.3651 H   0  0  0  0  0  0  0  0  0  0  0  0
   51.6301  -24.8293  -27.1588 H   0  0  0  0  0  0  0  0  0  0  0  0
   51.6303  -26.1014  -25.9337 H   0  0  0  0  0  0  0  0  0  0  0  0
   53.8985  -25.3661  -25.1713 H   0  0  0  0  0  0  0  0  0  0  0  0
   53.8983  -24.0955  -26.3979 H   0  0  0  0  0  0  0  0  0  0  0  0
   53.6568  -25.8260  -28.1901 H   0  0  0  0  0  0  0  0  0  0  0  0
   53.6569  -27.0965  -26.9634 H   0  0  0  0  0  0  0  0  0  0  0  0
   55.9250  -26.3628  -26.2025 H   0  0  0  0  0  0  0  0  0  0  0  0
   55.9251  -25.0907  -27.4276 H   0  0  0  0  0  0  0  0  0  0  0  0
   55.6835  -26.8188  -29.2220 H   0  0  0  0  0  0  0  0  0  0  0  0
   55.6835  -28.0909  -27.9969 H   0  0  0  0  0  0  0  0  0  0  0  0
   57.9518  -27.3569  -27.2348 H   0  0  0  0  0  0  0  0  0  0  0  0
   57.9517  -26.0848  -28.4598 H   0  0  0  0  0  0  0  0  0  0  0  0
   57.7102  -27.8127  -30.2543 H   0  0  0  0  0  0  0  0  0  0  0  0
   57.7102  -29.0849  -29.0293 H   0  0  0  0  0  0  0  0  0  0  0  0
   59.9786  -28.3508  -28.2671 H   0  0  0  0  0  0  0  0  0  0  0  0
   59.9784  -27.0788  -29.4921 H   0  0  0  0  0  0  0  0  0  0  0  0
   59.7368  -28.8068  -31.2866 H   0  0  0  0  0  0  0  0  0  0  0  0
   59.7368  -30.0789  -30.0615 H   0  0  0  0  0  0  0  0  0  0  0  0
   62.0051  -29.3449  -29.2993 H   0  0  0  0  0  0  0  0  0  0  0  0
   62.0051  -28.0728  -30.5244 H   0  0  0  0  0  0  0  0  0  0  0  0
   61.7635  -29.8008  -32.3188 H   0  0  0  0  0  0  0  0  0  0  0  0
   61.7635  -31.0730  -31.0938 H   0  0  0  0  0  0  0  0  0  0  0  0
   64.0318  -30.3390  -30.3316 H   0  0  0  0  0  0  0  0  0  0  0  0
   64.0317  -29.0669  -31.5566 H   0  0  0  0  0  0  0  0  0  0  0  0
   63.7902  -30.7947  -33.3511 H   0  0  0  0  0  0  0  0  0  0  0  0
   63.7903  -32.0670  -32.1262 H   0  0  0  0  0  0  0  0  0  0  0  0
   66.0585  -31.3344  -31.3643 H   0  0  0  0  0  0  0  0  0  0  0  0
   66.0585  -30.0606  -32.5877 H   0  0  0  0  0  0  0  0  0  0  0  0
   65.8170  -31.7861  -34.3845 H   0  0  0  0  0  0  0  0  0  0  0  0
   65.8170  -33.0600  -33.1613 H   0  0  0  0  0  0  0  0  0  0  0  0
   68.0854  -32.3272  -32.3982 H   0  0  0  0  0  0  0  0  0  0  0  0
   68.0853  -31.0533  -33.6214 H   0  0  0  0  0  0  0  0  0  0  0  0
   67.8441  -32.7788  -35.4184 H   0  0  0  0  0  0  0  0  0  0  0  0
   67.8442  -34.0527  -34.1952 H   0  0  0  0  0  0  0  0  0  0  0  0
   70.1127  -33.3201  -33.4323 H   0  0  0  0  0  0  0  0  0  0  0  0
   70.1128  -32.0463  -34.6555 H   0  0  0  0  0  0  0  0  0  0  0  0
   69.8722  -33.7720  -36.4526 H   0  0  0  0  0  0  0  0  0  0  0  0
   69.8721  -35.0457  -35.2293 H   0  0  0  0  0  0  0  0  0  0  0  0
   72.1414  -34.3125  -34.4669 H   0  0  0  0  0  0  0  0  0  0  0  0
   72.1413  -33.0404  -35.6917 H   0  0  0  0  0  0  0  0  0  0  0  0
   71.9017  -34.7688  -37.4867 H   0  0  0  0  0  0  0  0  0  0  0  0
   71.9018  -36.0409  -36.2618 H   0  0  0  0  0  0  0  0  0  0  0  0
   74.1726  -35.3098  -35.5030 H   0  0  0  0  0  0  0  0  0  0  0  0
   74.1725  -34.0379  -36.7277 H   0  0  0  0  0  0  0  0  0  0  0  0
   73.9347  -35.7681  -38.5234 H   0  0  0  0  0  0  0  0  0  0  0  0
   73.9368  -37.0395  -37.2978 H   0  0  0  0  0  0  0  0  0  0  0  0
   76.2088  -36.3051  -36.5418 H   0  0  0  0  0  0  0  0  0  0  0  0
   76.2064  -35.0359  -37.7685 H   0  0  0  0  0  0  0  0  0  0  0  0
   75.9921  -36.7719  -39.5646 H   0  0  0  0  0  0  0  0  0  0  0  0
   75.9945  -38.0414  -38.3375 H   0  0  0  0  0  0  0  0  0  0  0  0
   78.2705  -36.0488  -38.8271 H   0  0  0  0  0  0  0  0  0  0  0  0
   78.2528  -37.7544  -39.3151 H   0  0  0  0  0  0  0  0  0  0  0  0
   78.2729  -37.3245  -37.5940 H   0  0  0  0  0  0  0  0  0  0  0  0
  1  2  1  0  0  0  0
  1 80  1  0  0  0  0
  2  3  1  0  0  0  0
  2 81  1  0  0  0  0
  3  4  1  0  0  0  0
  3  5  1  0  0  0  0
  3 82  1  0  0  0  0
  4 83  1  0  0  0  0
  4 84  1  0  0  0  0
  4 85  1  0  0  0  0
  5  6  1  0  0  0  0
  6  7  1  0  0  0  0
  7  8  1  0  0  0  0
  8  9  1  0  0  0  0
  8 86  1  0  0  0  0
  8 87  1  0  0  0  0
  9 10  1  0  0  0  0
 10 11  1  0  0  0  0
 10 88  1  0  0  0  0
 10 89  1  0  0  0  0
 11 12  1  0  0  0  0
 12 13  1  0  0  0  0
 12 90  1  0  0  0  0
 12 91  1  0  0  0  0
 13 14  1  0  0  0  0
 14 15  1  0  0  0  0
 15 16  1  0  0  0  0
 16 17  1  0  0  0  0
 16 92  1  0  0  0  0
 16 93  1  0  0  0  0
 17 18  1  0  0  0  0
 18 19  1  0  0  0  0
 18 94  1  0  0  0  0
 18 95  1  0  0  0  0
 19 20  1  0  0  0  0
 20 21  1  0  0  0  0
 20 96  1  0  0  0  0
 20 97  1  0  0  0  0
 21 22  1  0  0  0  0
 22 23  1  0  0  0  0
 22 98  1  0  0  0  0
 22 99  1  0  0  0  0
 23 24  1  0  0  0  0
 23100  1  0  0  0  0
 23101  1  0  0  0  0
 24 25  1  0  0  0  0
 24102  1  0  0  0  0
 24103  1  0  0  0  0
 25 26  1  0  0  0  0
 25104  1  0  0  0  0
 25105  1  0  0  0  0
 26 27  1  0  0  0  0
 26106  1  0  0  0  0
 26107  1  0  0  0  0
 27 28  1  0  0  0  0
 27108  1  0  0  0  0
 27109  1  0  0  0  0
 28 29  1  0  0  0  0
 28110  1  0  0  0  0
 28111  1  0  0  0  0
 29 30  1  0  0  0  0
 29112  1  0  0  0  0
 29113  1  0  0  0  0
 30 31  1  0  0  0  0
 30114  1  0  0  0  0
 30115  1  0  0  0  0
 31 32  1  0  0  0  0
 31116  1  0  0  0  0
 31117  1  0  0  0  0
 32 33  1  0  0  0  0
 32118  1  0  0  0  0
 32119  1  0  0  0  0
 33 34  1  0  0  0  0
 33120  1  0  0  0  0
 33121  1  0  0  0  0
 34 35  1  0  0  0  0
 34122  1  0  0  0  0
 34123  1  0  0  0  0
 35 36  1  0  0  0  0
 35124  1  0  0  0  0
 35125  1  0  0  0  0
 36 37  1  0  0  0  0
 36126  1  0  0  0  0
 36127  1  0  0  0  0
 37 38  1  0  0  0  0
 37128  1  0  0  0  0
 37129  1  0  0  0  0
 38 39  1  0  0  0  0
 38130  1  0  0  0  0
 38131  1  0  0  0  0
 39 40  1  0  0  0  0
 39132  1  0  0  0  0
 39133  1  0  0  0  0
 40 41  1  0  0  0  0
 40134  1  0  0  0  0
 40135  1  0  0  0  0
 41 42  1  0  0  0  0
 41136  1  0  0  0  0
 41137  1  0  0  0  0
 42 43  1  0  0  0  0
 42138  1  0  0  0  0
 42139  1  0  0  0  0
 43 44  1  0  0  0  0
 43140  1  0  0  0  0
 43141  1  0  0  0  0
 44 45  1  0  0  0  0
 44142  1  0  0  0  0
 44143  1  0  0  0  0
 45 46  1  0  0  0  0
 45144  1  0  0  0  0
 45145  1  0  0  0  0
 46 47  1  0  0  0  0
 46146  1  0  0  0  0
 46147  1  0  0  0  0
 47 48  1  0  0  0  0
 47148  1  0  0  0  0
 47149  1  0  0  0  0
 48 49  1  0  0  0  0
 48150  1  0  0  0  0
 48151  1  0  0  0  0
 49 50  1  0  0  0  0
 49152  1  0  0  0  0
 49153  1  0  0  0  0
 50 51  1  0  0  0  0
 50154  1  0  0  0  0
 50155  1  0  0  0  0
 51 52  1  0  0  0  0
 51156  1  0  0  0  0
 51157  1  0  0  0  0
 52 53  1  0  0  0  0
 52158  1  0  0  0  0
 52159  1  0  0  0  0
 53 54  1  0  0  0  0
 53160  1  0  0  0  0
 53161  1  0  0  0  0
 54 55  1  0  0  0  0
 54162  1  0  0  0  0
 54163  1  0  0  0  0
 55 56  1  0  0  0  0
 55164  1  0  0  0  0
 55165  1  0  0  0  0
 56 57  1  0  0  0  0
 56166  1  0  0  0  0
 56167  1  0  0  0  0
 57 58  1  0  0  0  0
 57168  1  0  0  0  0
 57169  1  0  0  0  0
 58 59  1  0  0  0  0
 58170  1  0  0  0  0
 58171  1  0  0  0  0
 59 60  1  0  0  0  0
 59172  1  0  0  0  0
 59173  1  0  0  0  0
 60 61  1  0  0  0  0
 60174  1  0  0  0  0
 60175  1  0  0  0  0
 61 62  1  0  0  0  0
 61176  1  0  0  0  0
 61177  1  0  0  0  0
 62 63  1  0  0  0  0
 62178  1  0  0  0  0
 62179  1  0  0  0  0
 63 64  1  0  0  0  0
 63180  1  0  0  0  0
 63181  1  0  0  0  0
 64 65  1  0  0  0  0
 64182  1  0  0  0  0
 64183  1  0  0  0  0
 65 66  1  0  0  0  0
 65184  1  0  0  0  0
 65185  1  0  0  0  0
 66 67  1  0  0  0  0
 66186  1  0  0  0  0
 66187  1  0  0  0  0
 67 68  1  0  0  0  0
 67188  1  0  0  0  0
 67189  1  0  0  0  0
 68 69  1  0  0  0  0
 68190  1  0  0  0  0
 68191  1  0  0  0  0
 69 70  1  0  0  0  0
 69192  1  0  0  0  0
 69193  1  0  0  0  0
 70 71  1  0  0  0  0
 70194  1  0  0  0  0
 70195  1  0  0  0  0
 71 72  1  0  0  0  0
 71196  1  0  0  0  0
 71197  1  0  0  0  0
 72 73  1  0  0  0  0
 72198  1  0  0  0  0
 72199  1  0  0  0  0
 73 74  1  0  0  0  0
 73200  1  0  0  0  0
 73201  1  0  0  0  0
 74 75  1  0  0  0  0
 74202  1  0  0  0  0
 74203  1  0  0  0  0
 75 76  1  0  0  0  0
 75204  1  0  0  0  0
 75205  1  0  0  0  0
 76 77  1  0  0  0  0
 76206  1  0  0  0  0
 76207  1  0  0  0  0
 77 78  1  0  0  0  0
 77208  1  0  0  0  0
 77209  1  0  0  0  0
 78 79  1  0  0  0  0
 78210  1  0  0  0  0
 78211  1  0  0  0  0
 79212  1  0  0  0  0
 79213  1  0  0  0  0
 79214  1  0  0  0  0
M  END
$$$$
