
 OpenBabel04232216493D

 46 48  0  0  1  0  0  0  0  0999 V2000
    0.3930   -0.0344    1.0065 C   0  0  0  0  0  0  0  0  0  0  0  0
    1.6297    0.0582    0.1230 C   0  0  3  0  0  0  0  0  0  0  0  0
    1.7762   -1.5176   -0.9998 C   0  0  0  0  0  0  0  0  0  0  0  0
    3.4971   -2.2247   -1.4807 C   0  0  0  0  0  0  0  0  0  0  0  0
    5.0839   -1.5457   -0.7627 C   0  0  0  0  0  0  0  0  0  0  0  0
    5.1182    0.0134    0.2883 C   0  0  0  0  0  0  0  0  0  0  0  0
    3.3523    0.5632    1.0003 C   0  0  0  0  0  0  0  0  0  0  0  0
    3.4732    1.9112    1.4739 C   0  0  0  0  0  0  0  0  0  0  0  0
    3.6954    2.5346    0.2347 C   0  0  0  0  0  3  0  0  0  0  0  0
    3.4697    1.7197   -0.9943 C   0  0  0  0  0  0  0  0  0  0  0  0
    3.2384    2.4063   -2.0004 O   0  0  0  0  0  0  0  0  0  0  0  0
    3.4090    0.0362   -0.9686 N   0  0  0  0  0  0  0  0  0  0  0  0
    3.0659   -0.0102   -2.4679 C   0  0  0  0  0  0  0  0  0  0  0  0
    3.3148   -1.0972    0.5563 C   0  0  0  0  0  0  0  0  0  0  0  0
    3.1699   -2.7060    0.9561 C   0  0  0  0  0  0  0  0  0  0  0  0
    1.8661   -3.2595    1.5889 C   0  0  0  0  0  0  0  0  0  0  0  0
    3.4340   -0.5429    1.7856 C   0  0  0  0  0  0  0  0  0  0  0  0
    3.4769    2.4249    2.8012 C   0  0  0  0  0  0  0  0  0  0  0  0
    3.5453    1.7094    3.9311 C   0  0  0  0  0  0  0  0  0  0  0  0
    3.7054    0.2800    4.0926 C   0  0  0  0  0  0  0  0  0  0  0  0
    3.6117   -0.7069    3.1838 C   0  0  0  0  0  0  0  0  0  0  0  0
   -0.4572   -0.3225    0.3747 H   0  0  0  0  0  0  0  0  0  0  0  0
    0.1588    0.9397    1.4437 H   0  0  0  0  0  0  0  0  0  0  0  0
    0.4808   -0.7645    1.8075 H   0  0  0  0  0  0  0  0  0  0  0  0
    1.3641    0.8775   -0.5639 H   0  0  0  0  0  0  0  0  0  0  0  0
    1.2000   -1.3324   -1.9162 H   0  0  0  0  0  0  0  0  0  0  0  0
    1.2131   -2.3337   -0.5527 H   0  0  0  0  0  0  0  0  0  0  0  0
    3.4471   -3.3172   -1.3907 H   0  0  0  0  0  0  0  0  0  0  0  0
    3.6840   -2.2821   -2.5571 H   0  0  0  0  0  0  0  0  0  0  0  0
    5.8039   -1.4142   -1.5771 H   0  0  0  0  0  0  0  0  0  0  0  0
    5.4893   -2.3402   -0.1103 H   0  0  0  0  0  0  0  0  0  0  0  0
    5.5812    0.8003   -0.3261 H   0  0  0  0  0  0  0  0  0  0  0  0
    5.7965   -0.1851    1.1320 H   0  0  0  0  0  0  0  0  0  0  0  0
    3.8256    3.6012    0.1266 H   0  0  0  0  0  0  0  0  0  0  0  0
    3.7639    0.6378   -3.0161 H   0  0  0  0  0  0  0  0  0  0  0  0
    2.0597    0.4231   -2.6008 H   0  0  0  0  0  0  0  0  0  0  0  0
    3.0672   -0.8683   -3.1187 H   0  0  0  0  0  0  0  0  0  0  0  0
    3.9253   -2.8740    1.7433 H   0  0  0  0  0  0  0  0  0  0  0  0
    3.5515   -3.4747    0.2982 H   0  0  0  0  0  0  0  0  0  0  0  0
    0.9400   -2.7770    1.2795 H   0  0  0  0  0  0  0  0  0  0  0  0
    1.8965   -3.2123    2.6814 H   0  0  0  0  0  0  0  0  0  0  0  0
    1.7594   -4.3189    1.3200 H   0  0  0  0  0  0  0  0  0  0  0  0
    3.4337    3.5086    2.8866 H   0  0  0  0  0  0  0  0  0  0  0  0
    3.5318    2.2704    4.8667 H   0  0  0  0  0  0  0  0  0  0  0  0
    3.9679    0.0004    5.1159 H   0  0  0  0  0  0  0  0  0  0  0  0
    3.8052   -1.7125    3.5510 H   0  0  0  0  0  0  0  0  0  0  0  0
  1  2  1  0  0  0  0
  1 22  1  0  0  0  0
  1 23  1  0  0  0  0
  1 24  1  0  0  0  0
  2  3  1  0  0  0  0
  2  7  1  0  0  0  0
  2 25  1  0  0  0  0
  3  4  1  0  0  0  0
  3 26  1  0  0  0  0
  3 27  1  0  0  0  0
  4  5  1  0  0  0  0
  4 28  1  0  0  0  0
  4 29  1  0  0  0  0
  5  6  1  0  0  0  0
  5 30  1  0  0  0  0
  5 31  1  0  0  0  0
  6  7  1  0  0  0  0
  6 32  1  0  0  0  0
  6 33  1  0  0  0  0
  7  8  2  0  0  0  0
  7 17  1  0  0  0  0
  8  9  1  0  0  0  0
  8 18  1  0  0  0  0
  9 10  1  0  0  0  0
  9 34  1  0  0  0  0
 10 11  2  0  0  0  0
 10 12  1  0  0  0  0
 12 13  1  0  0  0  0
 12 14  1  0  0  0  0
 13 35  1  0  0  0  0
 13 36  1  0  0  0  0
 13 37  1  0  0  0  0
 14 15  1  0  0  0  0
 14 17  2  0  0  0  0
 15 16  1  0  0  0  0
 15 38  1  0  0  0  0
 15 39  1  0  0  0  0
 16 40  1  0  0  0  0
 16 41  1  0  0  0  0
 16 42  1  0  0  0  0
 17 21  1  0  0  0  0
 18 19  2  0  0  0  0
 18 43  1  0  0  0  0
 19 20  1  0  0  0  0
 19 44  1  0  0  0  0
 20 21  2  0  0  0  0
 20 45  1  0  0  0  0
 21 46  1  0  0  0  0
M  END
$$$$
