
 OpenBabel04232217023D

131130  0  0  0  0  0  0  0  0999 V2000
   40.7349  -25.2478   -7.9664 S   0  0  0  0  0  0  0  0  0  0  0  0
   39.3858  -24.8286   -7.0708 N   0  0  0  0  0  0  0  0  0  0  0  0
   39.5869  -23.7952   -6.4095 N   0  0  0  0  0  0  0  0  0  0  0  0
   38.4680  -23.4751   -5.7313 N   0  0  0  0  0  0  0  0  0  0  0  0
   38.5664  -22.5059   -4.7541 N   0  0  0  0  0  0  0  0  0  0  0  0
   37.6305  -21.4810   -5.0312 N   0  0  0  0  0  0  0  0  0  0  0  0
   37.7327  -20.4133   -4.1080 N   0  0  0  0  0  0  0  0  0  0  0  0
   36.7794  -19.4299   -4.4643 N   0  0  0  0  0  0  0  0  0  0  0  0
   36.8202  -18.3097   -3.6017 N   0  0  0  0  0  0  0  0  0  0  0  0
   36.0162  -17.2793   -4.1675 N   0  0  0  0  0  0  0  0  0  0  0  0
   36.1117  -16.0534   -3.4579 N   0  0  0  0  0  0  0  0  0  0  0  0
   37.4554  -15.6777   -3.2590 N   0  0  0  0  0  0  0  0  0  0  0  0
   37.6130  -14.5134   -2.4760 N   0  0  0  0  0  0  0  0  0  0  0  0
   37.7313  -14.7598   -1.0918 N   0  0  0  0  0  0  0  0  0  0  0  0
   38.6744  -15.7396   -0.7048 N   0  0  0  0  0  0  0  0  0  0  0  0
   39.9868  -15.2071   -0.5510 N   0  0  0  0  0  0  0  0  0  0  0  0
   39.9794  -14.0975    0.3661 N   0  0  0  0  0  0  0  0  0  0  0  0
   39.7856  -14.5713    1.6851 N   0  0  0  0  0  0  0  0  0  0  0  0
   39.6412  -13.6026    2.6990 N   0  0  0  0  0  0  0  0  0  0  0  0
   38.5987  -12.6605    2.4455 N   0  0  0  0  0  0  0  0  0  0  0  0
   37.3241  -13.2863    2.4096 N   0  0  0  0  0  0  0  0  0  0  0  0
   36.2666  -12.3439    2.2483 N   0  0  0  0  0  0  0  0  0  0  0  0
   36.0818  -11.8736    0.9052 N   0  0  0  0  0  0  0  0  0  0  0  0
   35.9611  -12.9736   -0.0145 N   0  0  0  0  0  0  0  0  0  0  0  0
   34.7767  -13.7493    0.2710 N   0  0  0  0  0  0  0  0  0  0  0  0
   34.4641  -15.0144   -0.7453 S   0  0  0  0  0  0  0  0  0  0  0  0
   35.3923  -16.3671   -0.4337 N   0  0  0  0  0  0  0  0  0  0  0  0
   35.5792  -16.7865    1.1311 S   0  0  0  0  0  0  0  0  0  0  0  0
   36.4292  -18.2082    1.0640 N   0  0  0  0  0  0  0  0  0  0  0  0
   38.0050  -18.1795    1.5434 S   0  0  0  0  0  0  0  0  0  0  0  0
   38.3768  -16.8255    2.3656 N   0  0  0  0  0  0  0  0  0  0  0  0
   38.5238  -16.9157    3.9844 S   0  0  0  0  0  0  0  0  0  0  0  0
   39.7093  -18.0304    4.2838 N   0  0  0  0  0  0  0  0  0  0  0  0
   41.2577  -17.5007    4.0463 S   0  0  0  0  0  0  0  0  0  0  0  0
   41.6033  -16.2577    5.0761 N   0  0  0  0  0  0  0  0  0  0  0  0
   41.3794  -16.5527    6.6842 S   0  0  0  0  0  0  0  0  0  0  0  0
   42.3072  -17.8351    7.1567 N   0  0  0  0  0  0  0  0  0  0  0  0
   43.9414  -17.5727    7.1578 S   0  0  0  0  0  0  0  0  0  0  0  0
   44.2906  -16.3175    8.1723 N   0  0  0  0  0  0  0  0  0  0  0  0
   44.1285  -16.6748    9.7750 S   0  0  0  0  0  0  0  0  0  0  0  0
   42.5130  -16.4834   10.0625 N   0  0  0  0  0  0  0  0  0  0  0  0
   42.0932  -16.7408   11.6355 S   0  0  0  0  0  0  0  0  0  0  0  0
   42.5315  -15.4103   12.5153 N   0  0  0  0  0  0  0  0  0  0  0  0
   41.7946  -13.9950   12.0789 S   0  0  0  0  0  0  0  0  0  0  0  0
   40.1742  -14.1601   12.3125 N   0  0  0  0  0  0  0  0  0  0  0  0
   39.7155  -13.9336   13.8786 S   0  0  0  0  0  0  0  0  0  0  0  0
   38.0965  -14.2855   13.8820 N   0  0  0  0  0  0  0  0  0  0  0  0
   37.1438  -12.9846   13.4996 S   0  0  0  0  0  0  0  0  0  0  0  0
   37.4608  -12.5455   11.9342 N   0  0  0  0  0  0  0  0  0  0  0  0
   36.9226  -13.5995   10.7783 S   0  0  0  0  0  0  0  0  0  0  0  0
   35.2985  -13.8285   10.9357 N   0  0  0  0  0  0  0  0  0  0  0  0
   34.3348  -12.5730   10.4687 S   0  0  0  0  0  0  0  0  0  0  0  0
   34.6187  -12.2007    8.8813 N   0  0  0  0  0  0  0  0  0  0  0  0
   34.3503  -13.4300    7.8093 S   0  0  0  0  0  0  0  0  0  0  0  0
   32.7159  -13.6872    7.7382 N   0  0  0  0  0  0  0  0  0  0  0  0
   32.2806  -14.5838    6.4139 S   0  0  0  0  0  0  0  0  0  0  0  0
   33.0341  -16.0576    6.5654 N   0  0  0  0  0  0  0  0  0  0  0  0
   32.3387  -17.2323    5.6315 S   0  0  0  0  0  0  0  0  0  0  0  0
   32.7320  -16.8894    4.0513 N   0  0  0  0  0  0  0  0  0  0  0  0
   32.6032  -18.2240    3.0696 S   0  0  0  0  0  0  0  0  0  0  0  0
   30.9875  -18.5477    2.8925 N   0  0  0  0  0  0  0  0  0  0  0  0
   30.6523  -19.3700    1.4933 S   0  0  0  0  0  0  0  0  0  0  0  0
   31.2689  -20.9044    1.6668 N   0  0  0  0  0  0  0  0  0  0  0  0
   30.5183  -22.0131    0.6944 S   0  0  0  0  0  0  0  0  0  0  0  0
   30.9713  -21.6864   -0.8713 N   0  0  0  0  0  0  0  0  0  0  0  0
   30.8890  -23.0175   -1.8514 S   0  0  0  0  0  0  0  0  0  0  0  0
   29.2891  -23.4093   -2.0310 N   0  0  0  0  0  0  0  0  0  0  0  0
   29.0265  -24.3475   -3.3743 S   0  0  0  0  0  0  0  0  0  0  0  0
   29.5878  -25.8721   -3.0330 N   0  0  0  0  0  0  0  0  0  0  0  0
   28.8945  -26.9646   -4.0634 S   0  0  0  0  0  0  0  0  0  0  0  0
   29.8073  -28.3359   -4.0362 N   0  0  0  0  0  0  0  0  0  0  0  0
   29.6598  -29.2716   -2.6842 S   0  0  0  0  0  0  0  0  0  0  0  0
   28.0725  -29.6751   -2.4648 N   0  0  0  0  0  0  0  0  0  0  0  0
   27.4469  -30.7437   -3.5565 S   0  0  0  0  0  0  0  0  0  0  0  0
   28.2359  -32.1874   -3.4480 N   0  0  0  0  0  0  0  0  0  0  0  0
   28.0686  -33.0166   -2.0309 S   0  0  0  0  0  0  0  0  0  0  0  0
   26.4793  -33.3386   -1.7594 N   0  0  0  0  0  0  0  0  0  0  0  0
   25.7970  -34.3399   -2.8860 S   0  0  0  0  0  0  0  0  0  0  0  0
   24.2839  -34.6869   -2.3207 N   0  0  0  0  0  0  0  0  0  0  0  0
   23.3053  -33.3538   -2.2557 S   0  0  0  0  0  0  0  0  0  0  0  0
   40.1934  -26.2607   -8.6572 H   0  0  0  0  0  0  0  0  0  0  0  0
   37.7993  -24.2338   -5.6281 H   0  0  0  0  0  0  0  0  0  0  0  0
   39.5219  -22.1420   -4.8085 H   0  0  0  0  0  0  0  0  0  0  0  0
   36.6861  -21.8710   -5.0224 H   0  0  0  0  0  0  0  0  0  0  0  0
   38.6743  -20.0177   -4.1558 H   0  0  0  0  0  0  0  0  0  0  0  0
   35.8423  -19.8338   -4.4617 H   0  0  0  0  0  0  0  0  0  0  0  0
   37.7795  -17.9535   -3.5501 H   0  0  0  0  0  0  0  0  0  0  0  0
   35.0425  -17.5882   -4.2534 H   0  0  0  0  0  0  0  0  0  0  0  0
   35.5431  -16.0767   -2.6094 H   0  0  0  0  0  0  0  0  0  0  0  0
   37.8701  -15.5096   -4.1837 H   0  0  0  0  0  0  0  0  0  0  0  0
   36.8579  -13.8418   -2.6486 H   0  0  0  0  0  0  0  0  0  0  0  0
   36.8140  -14.9590   -0.6653 H   0  0  0  0  0  0  0  0  0  0  0  0
   38.6495  -16.5535   -1.3293 H   0  0  0  0  0  0  0  0  0  0  0  0
   40.3066  -14.8837   -1.4658 H   0  0  0  0  0  0  0  0  0  0  0  0
   39.1396  -13.5698    0.1123 H   0  0  0  0  0  0  0  0  0  0  0  0
   40.3466  -15.4000    1.9088 H   0  0  0  0  0  0  0  0  0  0  0  0
   40.5294  -13.1259    2.8861 H   0  0  0  0  0  0  0  0  0  0  0  0
   38.7809  -12.2080    1.5517 H   0  0  0  0  0  0  0  0  0  0  0  0
   37.1824  -13.8366    3.2651 H   0  0  0  0  0  0  0  0  0  0  0  0
   36.3231  -11.5816    2.9350 H   0  0  0  0  0  0  0  0  0  0  0  0
   36.8613  -11.2716    0.6324 H   0  0  0  0  0  0  0  0  0  0  0  0
   36.7955  -13.5273    0.2099 H   0  0  0  0  0  0  0  0  0  0  0  0
   33.9952  -13.0939    0.2442 H   0  0  0  0  0  0  0  0  0  0  0  0
   36.2014  -16.5418   -0.9862 H   0  0  0  0  0  0  0  0  0  0  0  0
   36.3400  -18.6786    0.1671 H   0  0  0  0  0  0  0  0  0  0  0  0
   38.1107  -15.9156    1.9558 H   0  0  0  0  0  0  0  0  0  0  0  0
   39.5337  -18.8136    3.6542 H   0  0  0  0  0  0  0  0  0  0  0  0
   41.0615  -15.4387    4.8003 H   0  0  0  0  0  0  0  0  0  0  0  0
   42.0826  -18.6420    6.5736 H   0  0  0  0  0  0  0  0  0  0  0  0
   43.7724  -15.4807    7.9121 H   0  0  0  0  0  0  0  0  0  0  0  0
   42.0211  -17.1488    9.4597 H   0  0  0  0  0  0  0  0  0  0  0  0
   43.5438  -15.2971   12.4720 H   0  0  0  0  0  0  0  0  0  0  0  0
   39.8440  -15.0543   11.9543 H   0  0  0  0  0  0  0  0  0  0  0  0
   37.8329  -14.6129   14.8115 H   0  0  0  0  0  0  0  0  0  0  0  0
   38.4740  -12.4381   11.8366 H   0  0  0  0  0  0  0  0  0  0  0  0
   35.0743  -14.1175   11.8862 H   0  0  0  0  0  0  0  0  0  0  0  0
   35.5828  -11.8788    8.7977 H   0  0  0  0  0  0  0  0  0  0  0  0
   32.2374  -12.7891    7.7155 H   0  0  0  0  0  0  0  0  0  0  0  0
   33.0198  -16.3279    7.5514 H   0  0  0  0  0  0  0  0  0  0  0  0
   33.6877  -16.5346    4.0190 H   0  0  0  0  0  0  0  0  0  0  0  0
   30.4808  -17.6614    2.8978 H   0  0  0  0  0  0  0  0  0  0  0  0
   31.1686  -21.1801    2.6438 H   0  0  0  0  0  0  0  0  0  0  0  0
   31.9290  -21.3353   -0.8575 H   0  0  0  0  0  0  0  0  0  0  0  0
   28.7457  -22.5491   -2.1061 H   0  0  0  0  0  0  0  0  0  0  0  0
   29.3638  -26.1119   -2.0682 H   0  0  0  0  0  0  0  0  0  0  0  0
   30.7900  -28.1296   -4.2280 H   0  0  0  0  0  0  0  0  0  0  0  0
   27.5094  -28.8253   -2.4672 H   0  0  0  0  0  0  0  0  0  0  0  0
   29.2221  -32.0617   -3.6744 H   0  0  0  0  0  0  0  0  0  0  0  0
   25.9500  -32.4739   -1.7090 H   0  0  0  0  0  0  0  0  0  0  0  0
   24.3388  -35.1608   -1.4189 H   0  0  0  0  0  0  0  0  0  0  0  0
   23.3049  -33.0379   -3.5604 H   0  0  0  0  0  0  0  0  0  0  0  0
  1  2  1  0  0  0  0
  1 81  1  0  0  0  0
  2  3  2  3  0  0  0
  3  4  1  0  0  0  0
  4  5  1  0  0  0  0
  4 82  1  0  0  0  0
  5  6  1  0  0  0  0
  5 83  1  0  0  0  0
  6  7  1  0  0  0  0
  6 84  1  0  0  0  0
  7  8  1  0  0  0  0
  7 85  1  0  0  0  0
  8  9  1  0  0  0  0
  8 86  1  0  0  0  0
  9 10  1  0  0  0  0
  9 87  1  0  0  0  0
 10 11  1  0  0  0  0
 10 88  1  0  0  0  0
 11 12  1  0  0  0  0
 11 89  1  0  0  0  0
 12 13  1  0  0  0  0
 12 90  1  0  0  0  0
 13 14  1  0  0  0  0
 13 91  1  0  0  0  0
 14 15  1  0  0  0  0
 14 92  1  0  0  0  0
 15 16  1  0  0  0  0
 15 93  1  0  0  0  0
 16 17  1  0  0  0  0
 16 94  1  0  0  0  0
 17 18  1  0  0  0  0
 17 95  1  0  0  0  0
 18 19  1  0  0  0  0
 18 96  1  0  0  0  0
 19 20  1  0  0  0  0
 19 97  1  0  0  0  0
 20 21  1  0  0  0  0
 20 98  1  0  0  0  0
 21 22  1  0  0  0  0
 21 99  1  0  0  0  0
 22 23  1  0  0  0  0
 22100  1  0  0  0  0
 23 24  1  0  0  0  0
 23101  1  0  0  0  0
 24 25  1  0  0  0  0
 24102  1  0  0  0  0
 25 26  1  0  0  0  0
 25103  1  0  0  0  0
 26 27  1  0  0  0  0
 27 28  1  0  0  0  0
 27104  1  0  0  0  0
 28 29  1  0  0  0  0
 29 30  1  0  0  0  0
 29105  1  0  0  0  0
 30 31  1  0  0  0  0
 31 32  1  0  0  0  0
 31106  1  0  0  0  0
 32 33  1  0  0  0  0
 33 34  1  0  0  0  0
 33107  1  0  0  0  0
 34 35  1  0  0  0  0
 35 36  1  0  0  0  0
 35108  1  0  0  0  0
 36 37  1  0  0  0  0
 37 38  1  0  0  0  0
 37109  1  0  0  0  0
 38 39  1  0  0  0  0
 39 40  1  0  0  0  0
 39110  1  0  0  0  0
 40 41  1  0  0  0  0
 41 42  1  0  0  0  0
 41111  1  0  0  0  0
 42 43  1  0  0  0  0
 43 44  1  0  0  0  0
 43112  1  0  0  0  0
 44 45  1  0  0  0  0
 45 46  1  0  0  0  0
 45113  1  0  0  0  0
 46 47  1  0  0  0  0
 47 48  1  0  0  0  0
 47114  1  0  0  0  0
 48 49  1  0  0  0  0
 49 50  1  0  0  0  0
 49115  1  0  0  0  0
 50 51  1  0  0  0  0
 51 52  1  0  0  0  0
 51116  1  0  0  0  0
 52 53  1  0  0  0  0
 53 54  1  0  0  0  0
 53117  1  0  0  0  0
 54 55  1  0  0  0  0
 55 56  1  0  0  0  0
 55118  1  0  0  0  0
 56 57  1  0  0  0  0
 57 58  1  0  0  0  0
 57119  1  0  0  0  0
 58 59  1  0  0  0  0
 59 60  1  0  0  0  0
 59120  1  0  0  0  0
 60 61  1  0  0  0  0
 61 62  1  0  0  0  0
 61121  1  0  0  0  0
 62 63  1  0  0  0  0
 63 64  1  0  0  0  0
 63122  1  0  0  0  0
 64 65  1  0  0  0  0
 65 66  1  0  0  0  0
 65123  1  0  0  0  0
 66 67  1  0  0  0  0
 67 68  1  0  0  0  0
 67124  1  0  0  0  0
 68 69  1  0  0  0  0
 69 70  1  0  0  0  0
 69125  1  0  0  0  0
 70 71  1  0  0  0  0
 71 72  1  0  0  0  0
 71126  1  0  0  0  0
 72 73  1  0  0  0  0
 73 74  1  0  0  0  0
 73127  1  0  0  0  0
 74 75  1  0  0  0  0
 75 76  1  0  0  0  0
 75128  1  0  0  0  0
 76 77  1  0  0  0  0
 77 78  1  0  0  0  0
 77129  1  0  0  0  0
 78 79  1  0  0  0  0
 79 80  1  0  0  0  0
 79130  1  0  0  0  0
 80131  1  0  0  0  0
M  END
$$$$
