
 OpenBabel04232216553D

 43 44  0  0  0  0  0  0  0  0999 V2000
    6.8365    1.7611    1.1524 C   0  0  0  0  0  0  0  0  0  0  0  0
    7.2496    1.4599   -0.2458 N   0  0  0  0  0  0  0  0  0  0  0  0
    7.9783    0.2679   -0.4541 C   0  0  0  0  0  0  0  0  0  0  0  0
    9.1963    0.0927    0.4593 C   0  0  0  0  0  0  0  0  0  0  0  0
    9.8697    1.3549    0.6554 O   0  0  0  0  0  0  0  0  0  0  0  0
    7.6903   -0.6697   -1.3988 C   0  0  0  0  0  0  0  0  0  0  0  0
    7.7250   -2.0642   -1.0262 C   0  0  0  0  0  0  0  0  0  0  0  0
    6.6569   -2.8985   -1.1700 C   0  0  0  0  0  0  0  0  0  0  0  0
    5.1749   -2.5251   -1.4594 C   0  0  0  0  0  0  0  0  0  0  0  0
    4.3182   -1.6123   -0.5867 C   0  0  0  0  0  0  0  0  0  0  0  0
    7.0663   -4.2771   -1.5435 C   0  0  0  0  0  0  0  0  0  0  0  0
    6.4944   -4.8113   -2.6557 C   0  0  0  0  0  0  0  0  0  0  0  0
    7.0393   -4.2447   -3.9102 C   0  0  0  0  0  0  0  0  0  0  0  0
    6.4526   -3.1209   -4.3992 C   0  0  0  0  0  0  0  0  0  0  0  0
    5.3656   -3.3042   -5.4353 C   0  0  0  0  0  0  0  0  0  0  0  0
    7.4053   -1.9527   -4.5775 C   0  0  0  0  0  0  0  0  0  0  0  0
    8.3133   -2.1317   -5.7984 C   0  0  0  0  0  0  0  0  0  0  0  0
    7.6243   -0.8828   -3.8603 N   0  0  0  0  0  0  0  0  0  0  0  0
    7.0046   -0.3591   -2.7311 C   0  0  0  0  0  0  0  0  0  0  0  0
    6.0441    0.5095   -2.8615 N   0  0  0  0  0  0  0  0  0  0  0  0
    5.6336    1.0179   -1.6052 N   0  0  0  0  0  0  0  0  0  0  0  0
    6.3688    1.9405   -1.1961 N   0  0  0  0  0  0  0  0  0  0  0  0
    7.6784    1.7115    1.8547 H   0  0  0  0  0  0  0  0  0  0  0  0
    6.0982    1.0238    1.4998 H   0  0  0  0  0  0  0  0  0  0  0  0
    6.4021    2.7601    1.2497 H   0  0  0  0  0  0  0  0  0  0  0  0
    9.9544   -0.5540    0.0038 H   0  0  0  0  0  0  0  0  0  0  0  0
    8.9364   -0.2994    1.4451 H   0  0  0  0  0  0  0  0  0  0  0  0
    9.7088    1.8880   -0.1449 H   0  0  0  0  0  0  0  0  0  0  0  0
    8.7263   -2.4430   -0.8323 H   0  0  0  0  0  0  0  0  0  0  0  0
    4.6051   -3.4615   -1.4619 H   0  0  0  0  0  0  0  0  0  0  0  0
    5.0928   -2.1466   -2.4822 H   0  0  0  0  0  0  0  0  0  0  0  0
    4.7487   -1.3856    0.3873 H   0  0  0  0  0  0  0  0  0  0  0  0
    3.3348   -2.0800   -0.4382 H   0  0  0  0  0  0  0  0  0  0  0  0
    4.0746   -0.6844   -1.1115 H   0  0  0  0  0  0  0  0  0  0  0  0
    8.1661   -4.3310   -1.5564 H   0  0  0  0  0  0  0  0  0  0  0  0
    5.4093   -4.9045   -2.6903 H   0  0  0  0  0  0  0  0  0  0  0  0
    8.1288   -4.2819   -3.8734 H   0  0  0  0  0  0  0  0  0  0  0  0
    4.3889   -2.9643   -5.0887 H   0  0  0  0  0  0  0  0  0  0  0  0
    5.2581   -4.3676   -5.7210 H   0  0  0  0  0  0  0  0  0  0  0  0
    5.6061   -2.7803   -6.3703 H   0  0  0  0  0  0  0  0  0  0  0  0
    9.3557   -2.0372   -5.4881 H   0  0  0  0  0  0  0  0  0  0  0  0
    8.0685   -1.3645   -6.5545 H   0  0  0  0  0  0  0  0  0  0  0  0
    8.1945   -3.1162   -6.2443 H   0  0  0  0  0  0  0  0  0  0  0  0
  1  2  1  0  0  0  0
  1 23  1  0  0  0  0
  1 24  1  0  0  0  0
  1 25  1  0  0  0  0
  2  3  1  0  0  0  0
  2 22  1  0  0  0  0
  3  4  1  0  0  0  0
  3  6  2  0  0  0  0
  4  5  1  0  0  0  0
  4 26  1  0  0  0  0
  4 27  1  0  0  0  0
  5 28  1  0  0  0  0
  6  7  1  0  0  0  0
  6 19  1  0  0  0  0
  7  8  2  0  0  0  0
  7 29  1  0  0  0  0
  8  9  1  0  0  0  0
  8 11  1  0  0  0  0
  9 10  1  0  0  0  0
  9 30  1  0  0  0  0
  9 31  1  0  0  0  0
 10 32  1  0  0  0  0
 10 33  1  0  0  0  0
 10 34  1  0  0  0  0
 11 12  2  0  0  0  0
 11 35  1  0  0  0  0
 12 13  1  0  0  0  0
 12 36  1  0  0  0  0
 13 14  2  0  0  0  0
 13 37  1  0  0  0  0
 14 15  1  0  0  0  0
 14 16  1  0  0  0  0
 15 38  1  0  0  0  0
 15 39  1  0  0  0  0
 15 40  1  0  0  0  0
 16 17  1  0  0  0  0
 16 18  2  0  0  0  0
 17 41  1  0  0  0  0
 17 42  1  0  0  0  0
 17 43  1  0  0  0  0
 18 19  1  0  0  0  0
 19 20  2  0  0  0  0
 20 21  1  0  0  0  0
 21 22  2  0  0  0  0
M  END
$$$$
