
 OpenBabel04232216593D

168167  0  0  0  0  0  0  0  0999 V2000
    1.8448    4.7118    0.5610 O   0  0  0  0  0  0  0  0  0  0  0  0
    2.7556    4.4124    1.3379 C   0  0  0  0  0  0  0  0  0  0  0  0
    3.3955    5.4489    2.2242 C   0  0  0  0  0  0  0  0  0  0  0  0
    3.2151    2.9814    1.5084 C   0  0  0  0  0  0  0  0  0  0  0  0
    4.5687    2.8740    1.1324 O   0  0  0  0  0  0  0  0  0  0  0  0
    4.9554    1.5281    1.5315 O   0  0  0  0  0  0  0  0  0  0  0  0
    6.3918    1.3532    1.4541 O   0  0  0  0  0  0  0  0  0  0  0  0
    7.0545    2.1750    2.4487 N   0  0  0  0  0  0  0  0  0  0  0  0
    8.4787    2.0139    2.1655 C   0  0  0  0  0  0  0  0  0  0  0  0
    9.2796    2.8667    3.1412 C   0  0  0  0  0  0  0  0  0  0  0  0
   10.7734    2.6701    2.9105 C   0  0  0  0  0  0  0  0  0  0  0  0
   11.5091    3.5012    3.8566 N   0  0  0  0  0  0  0  0  0  0  0  0
   12.9499    3.3309    3.6941 C   0  0  0  0  0  0  0  0  0  0  0  0
   13.7083    4.2090    4.6950 C   0  0  0  0  0  0  0  0  0  0  0  0
   15.2138    4.0317    4.5030 C   0  0  0  0  0  0  0  0  0  0  0  0
   15.9777    4.8696    5.4328 N   0  0  0  0  0  0  0  0  0  0  0  0
   17.4028    4.6734    5.2274 C   0  0  0  0  0  0  0  0  0  0  0  0
   18.1602    5.5373    6.2291 C   0  0  0  0  0  0  0  0  0  0  0  0
   19.6546    5.3440    6.0318 C   0  0  0  0  0  0  0  0  0  0  0  0
   20.3927    6.1683    6.9814 N   0  0  0  0  0  0  0  0  0  0  0  0
   21.8190    5.9850    6.7633 C   0  0  0  0  0  0  0  0  0  0  0  0
   22.5788    6.8542    7.7487 C   0  0  0  0  0  0  0  0  0  0  0  0
   24.0721    6.6698    7.5305 C   0  0  0  0  0  0  0  0  0  0  0  0
   24.7787    7.5062    8.4859 N   0  0  0  0  0  0  0  0  0  0  0  0
   26.2233    7.3400    8.3322 C   0  0  0  0  0  0  0  0  0  0  0  0
   26.9864    8.2149    9.3295 C   0  0  0  0  0  0  0  0  0  0  0  0
   28.4926    8.0380    9.1267 C   0  0  0  0  0  0  0  0  0  0  0  0
   29.2572    8.8633   10.0707 N   0  0  0  0  0  0  0  0  0  0  0  0
   30.6876    8.6691    9.8733 C   0  0  0  0  0  0  0  0  0  0  0  0
   31.4621    9.5336   10.8719 C   0  0  0  0  0  0  0  0  0  0  0  0
   32.9661    9.3522   10.6764 C   0  0  0  0  0  0  0  0  0  0  0  0
   33.7138   10.1979   11.6039 N   0  0  0  0  0  0  0  0  0  0  0  0
   35.1509   10.0269   11.4076 C   0  0  0  0  0  0  0  0  0  0  0  0
   35.9091   10.8871   12.4132 C   0  0  0  0  0  0  0  0  0  0  0  0
   37.4058   10.6916   12.2118 C   0  0  0  0  0  0  0  0  0  0  0  0
   38.1581   11.5083   13.1601 N   0  0  0  0  0  0  0  0  0  0  0  0
   39.5858   11.3388   12.9531 C   0  0  0  0  0  0  0  0  0  0  0  0
   40.3123   12.2122   13.9480 C   0  0  0  0  0  0  0  0  0  0  0  0
   41.7041   11.9898   13.7690 O   0  0  0  0  0  0  0  0  0  0  0  0
   42.3795   12.8379   14.7301 N   0  0  0  0  0  0  0  0  0  0  0  0
   43.7966   12.6394   14.4691 C   0  0  0  0  0  0  0  0  0  0  0  0
   44.5734   13.4900   15.4505 C   0  0  0  0  0  0  0  0  0  0  0  0
   45.9584   13.2072   15.2977 O   0  0  0  0  0  0  0  0  0  0  0  0
   46.6526   14.0839   16.2174 N   0  0  0  0  0  0  0  0  0  0  0  0
   48.0729   13.9148   15.9288 C   0  0  0  0  0  0  0  0  0  0  0  0
   48.8296   14.7744   16.9171 C   0  0  0  0  0  0  0  0  0  0  0  0
   50.2150   14.4989   16.7899 O   0  0  0  0  0  0  0  0  0  0  0  0
   50.8751   15.3587   17.7451 N   0  0  0  0  0  0  0  0  0  0  0  0
   52.3007   15.2091   17.4645 C   0  0  0  0  0  0  0  0  0  0  0  0
   53.0782   16.0574   18.4484 C   0  0  0  0  0  0  0  0  0  0  0  0
   54.4704   15.8354   18.2267 O   0  0  0  0  0  0  0  0  0  0  0  0
   55.1700   16.8132   19.0348 N   0  0  0  0  0  0  0  0  0  0  0  0
   56.6047   16.5455   18.8907 C   0  0  0  0  0  0  0  0  0  0  0  0
   57.3741   17.4373   19.8736 C   0  0  0  0  0  0  0  0  0  0  0  0
   57.0306   17.0773   21.2106 O   0  0  0  0  0  0  0  0  0  0  0  0
   57.6552   18.0275   22.1302 N   0  0  0  0  0  0  0  0  0  0  0  0
   57.2021   17.6190   23.4573 O   0  0  0  0  0  0  0  0  0  0  0  0
   57.9481   18.3353   24.4256 C   0  0  0  0  0  0  0  0  0  0  0  0
   57.6240   17.9340   25.7700 O   0  0  0  0  0  0  0  0  0  0  0  0
   58.1368   16.5770   25.9633 N   0  0  0  0  0  0  0  0  0  0  0  0
   57.7587   16.1229   27.2899 O   0  0  0  0  0  0  0  0  0  0  0  0
   57.9507   14.6806   27.3893 N   0  0  0  0  0  0  0  0  0  0  0  0
   57.8013   14.2748   28.7727 O   0  0  0  0  0  0  0  0  0  0  0  0
   58.0899   12.8555   28.8599 N   0  0  0  0  0  0  0  0  0  0  0  0
   57.3314   12.3035   29.9478 O   0  0  0  0  0  0  0  0  0  0  0  0
   57.9890   11.0801   30.3234 N   0  0  0  0  0  0  0  0  0  0  0  0
   57.6500   10.8179   31.6855 O   0  0  0  0  0  0  0  0  0  0  0  0
   57.7782    9.4002   31.8558 N   0  0  0  0  0  0  0  0  0  0  0  0
   57.2838    9.0618   33.1455 O   0  0  0  0  0  0  0  0  0  0  0  0
   57.5770    7.6786   33.2298 N   0  0  0  0  0  0  0  0  0  0  0  0
   57.6803    7.2982   34.6042 O   0  0  0  0  0  0  0  0  0  0  0  0
   58.0136    5.9072   34.5018 N   0  0  0  0  0  0  0  0  0  0  0  0
   59.4447    5.8361   34.3259 O   0  0  0  0  0  0  0  0  0  0  0  0
   59.9058    4.4726   34.4277 O   0  0  0  0  0  0  0  0  0  0  0  0
   61.3386    4.4284   34.2376 O   0  0  0  0  0  0  0  0  0  0  0  0
   61.9926    5.3007   35.1955 O   0  0  0  0  0  0  0  0  0  0  0  0
   63.4027    5.4107   34.9028 O   0  0  0  0  0  0  0  0  0  0  0  0
   63.6113    6.1864   33.6991 O   0  0  0  0  0  0  0  0  0  0  0  0
    3.0087    6.4387    1.9646 H   0  0  0  0  0  0  0  0  0  0  0  0
    4.4789    5.4506    2.0866 H   0  0  0  0  0  0  0  0  0  0  0  0
    3.1467    5.2364    3.2671 H   0  0  0  0  0  0  0  0  0  0  0  0
    2.6186    2.3351    0.8572 H   0  0  0  0  0  0  0  0  0  0  0  0
    3.0586    2.6838    2.5516 H   0  0  0  0  0  0  0  0  0  0  0  0
    6.8285    1.6757    3.3062 H   0  0  0  0  0  0  0  0  0  0  0  0
    8.7012    2.3233    1.1381 H   0  0  0  0  0  0  0  0  0  0  0  0
    8.7635    0.9596    2.2690 H   0  0  0  0  0  0  0  0  0  0  0  0
    9.0242    2.5948    4.1738 H   0  0  0  0  0  0  0  0  0  0  0  0
    9.0192    3.9253    3.0102 H   0  0  0  0  0  0  0  0  0  0  0  0
   11.0306    2.9516    1.8824 H   0  0  0  0  0  0  0  0  0  0  0  0
   11.0337    1.6138    3.0501 H   0  0  0  0  0  0  0  0  0  0  0  0
   11.2338    3.2562    4.8074 H   0  0  0  0  0  0  0  0  0  0  0  0
   13.2439    3.6107    2.6752 H   0  0  0  0  0  0  0  0  0  0  0  0
   13.2270    2.2808    3.8486 H   0  0  0  0  0  0  0  0  0  0  0  0
   13.4278    3.9373    5.7206 H   0  0  0  0  0  0  0  0  0  0  0  0
   13.4357    5.2624    4.5489 H   0  0  0  0  0  0  0  0  0  0  0  0
   15.4754    4.2997    3.4718 H   0  0  0  0  0  0  0  0  0  0  0  0
   15.4744    2.9760    4.6497 H   0  0  0  0  0  0  0  0  0  0  0  0
   15.7440    4.6300    6.3953 H   0  0  0  0  0  0  0  0  0  0  0  0
   17.6830    4.9588    4.2064 H   0  0  0  0  0  0  0  0  0  0  0  0
   17.6713    3.6195    5.3726 H   0  0  0  0  0  0  0  0  0  0  0  0
   17.8783    5.2628    7.2542 H   0  0  0  0  0  0  0  0  0  0  0  0
   17.8948    6.5936    6.0896 H   0  0  0  0  0  0  0  0  0  0  0  0
   19.9203    5.6260    5.0052 H   0  0  0  0  0  0  0  0  0  0  0  0
   19.9099    4.2858    6.1681 H   0  0  0  0  0  0  0  0  0  0  0  0
   20.1570    5.9098    7.9390 H   0  0  0  0  0  0  0  0  0  0  0  0
   22.0876    6.2724    5.7395 H   0  0  0  0  0  0  0  0  0  0  0  0
   22.0957    4.9332    6.9063 H   0  0  0  0  0  0  0  0  0  0  0  0
   22.3095    6.5803    8.7777 H   0  0  0  0  0  0  0  0  0  0  0  0
   22.3045    7.9087    7.6111 H   0  0  0  0  0  0  0  0  0  0  0  0
   24.3353    6.9565    6.5057 H   0  0  0  0  0  0  0  0  0  0  0  0
   24.3389    5.6148    7.6711 H   0  0  0  0  0  0  0  0  0  0  0  0
   24.4879    7.2522    9.4286 H   0  0  0  0  0  0  0  0  0  0  0  0
   26.5178    7.6199    7.3133 H   0  0  0  0  0  0  0  0  0  0  0  0
   26.5003    6.2893    8.4847 H   0  0  0  0  0  0  0  0  0  0  0  0
   26.7110    7.9390   10.3552 H   0  0  0  0  0  0  0  0  0  0  0  0
   26.7133    9.2682    9.1879 H   0  0  0  0  0  0  0  0  0  0  0  0
   28.7532    8.3176    8.0986 H   0  0  0  0  0  0  0  0  0  0  0  0
   28.7526    6.9805    9.2625 H   0  0  0  0  0  0  0  0  0  0  0  0
   28.9916    8.6056   11.0207 H   0  0  0  0  0  0  0  0  0  0  0  0
   30.9680    8.9552    8.8524 H   0  0  0  0  0  0  0  0  0  0  0  0
   30.9553    7.6152   10.0162 H   0  0  0  0  0  0  0  0  0  0  0  0
   31.1844    9.2594   11.8982 H   0  0  0  0  0  0  0  0  0  0  0  0
   31.1935   10.5891   10.7332 H   0  0  0  0  0  0  0  0  0  0  0  0
   33.2251    9.6212    9.6446 H   0  0  0  0  0  0  0  0  0  0  0  0
   33.2290    8.2975   10.8243 H   0  0  0  0  0  0  0  0  0  0  0  0
   33.5020    9.9699   12.5753 H   0  0  0  0  0  0  0  0  0  0  0  0
   35.4276   10.3186   10.3876 H   0  0  0  0  0  0  0  0  0  0  0  0
   35.4260    8.9739   11.5471 H   0  0  0  0  0  0  0  0  0  0  0  0
   35.6281   10.6081   13.4371 H   0  0  0  0  0  0  0  0  0  0  0  0
   35.6435   11.9436   12.2779 H   0  0  0  0  0  0  0  0  0  0  0  0
   37.6704   10.9750   11.1856 H   0  0  0  0  0  0  0  0  0  0  0  0
   37.6588    9.6326   12.3449 H   0  0  0  0  0  0  0  0  0  0  0  0
   37.9165   11.2494   14.1158 H   0  0  0  0  0  0  0  0  0  0  0  0
   39.8769   11.6249   11.9350 H   0  0  0  0  0  0  0  0  0  0  0  0
   39.8847   10.2920   13.0900 H   0  0  0  0  0  0  0  0  0  0  0  0
   40.0271   11.9378   14.9725 H   0  0  0  0  0  0  0  0  0  0  0  0
   40.0755   13.2713   13.7824 H   0  0  0  0  0  0  0  0  0  0  0  0
   42.1181   12.3661   15.5974 H   0  0  0  0  0  0  0  0  0  0  0  0
   44.0548   12.9330   13.4441 H   0  0  0  0  0  0  0  0  0  0  0  0
   44.0754   11.5842   14.5785 H   0  0  0  0  0  0  0  0  0  0  0  0
   44.2772   13.2389   16.4781 H   0  0  0  0  0  0  0  0  0  0  0  0
   44.3789   14.5564   15.2765 H   0  0  0  0  0  0  0  0  0  0  0  0
   46.4594   13.6400   17.1179 H   0  0  0  0  0  0  0  0  0  0  0  0
   48.3163   14.2189   14.9047 H   0  0  0  0  0  0  0  0  0  0  0  0
   48.3713   12.8645   16.0365 H   0  0  0  0  0  0  0  0  0  0  0  0
   48.5199   14.5230   17.9417 H   0  0  0  0  0  0  0  0  0  0  0  0
   48.6294   15.8395   16.7419 H   0  0  0  0  0  0  0  0  0  0  0  0
   50.6776   14.8938   18.6331 H   0  0  0  0  0  0  0  0  0  0  0  0
   52.5393   15.5215   16.4408 H   0  0  0  0  0  0  0  0  0  0  0  0
   52.6062   14.1595   17.5578 H   0  0  0  0  0  0  0  0  0  0  0  0
   52.8295   15.7754   19.4806 H   0  0  0  0  0  0  0  0  0  0  0  0
   52.8376   17.1197   18.3044 H   0  0  0  0  0  0  0  0  0  0  0  0
   54.9065   16.4941   19.9702 H   0  0  0  0  0  0  0  0  0  0  0  0
   56.9172   16.7756   17.8680 H   0  0  0  0  0  0  0  0  0  0  0  0
   56.8162   15.4908   19.1033 H   0  0  0  0  0  0  0  0  0  0  0  0
   57.1270   18.4919   19.7016 H   0  0  0  0  0  0  0  0  0  0  0  0
   58.4515   17.2953   19.7346 H   0  0  0  0  0  0  0  0  0  0  0  0
   57.0711   18.8453   21.9987 H   0  0  0  0  0  0  0  0  0  0  0  0
   57.7009   19.3997   24.3512 H   0  0  0  0  0  0  0  0  0  0  0  0
   59.0281   18.2175   24.2619 H   0  0  0  0  0  0  0  0  0  0  0  0
   59.1236   16.7909   26.1068 H   0  0  0  0  0  0  0  0  0  0  0  0
   58.9653   14.6273   27.3583 H   0  0  0  0  0  0  0  0  0  0  0  0
   59.0047   12.8081   29.3045 H   0  0  0  0  0  0  0  0  0  0  0  0
   58.9525   11.3720   30.4366 H   0  0  0  0  0  0  0  0  0  0  0  0
   58.7751    9.3268   32.0089 H   0  0  0  0  0  0  0  0  0  0  0  0
   58.5652    7.7192   32.9992 H   0  0  0  0  0  0  0  0  0  0  0  0
   57.7221    5.8249   33.5250 H   0  0  0  0  0  0  0  0  0  0  0  0
   64.5524    5.9710   33.6143 H   0  0  0  0  0  0  0  0  0  0  0  0
  1  2  2  0  0  0  0
  2  3  1  0  0  0  0
  2  4  1  0  0  0  0
  3 79  1  0  0  0  0
  3 80  1  0  0  0  0
  3 81  1  0  0  0  0
  4  5  1  0  0  0  0
  4 82  1  0  0  0  0
  4 83  1  0  0  0  0
  5  6  1  0  0  0  0
  6  7  1  0  0  0  0
  7  8  1  0  0  0  0
  8  9  1  0  0  0  0
  8 84  1  0  0  0  0
  9 10  1  0  0  0  0
  9 85  1  0  0  0  0
  9 86  1  0  0  0  0
 10 11  1  0  0  0  0
 10 87  1  0  0  0  0
 10 88  1  0  0  0  0
 11 12  1  0  0  0  0
 11 89  1  0  0  0  0
 11 90  1  0  0  0  0
 12 13  1  0  0  0  0
 12 91  1  0  0  0  0
 13 14  1  0  0  0  0
 13 92  1  0  0  0  0
 13 93  1  0  0  0  0
 14 15  1  0  0  0  0
 14 94  1  0  0  0  0
 14 95  1  0  0  0  0
 15 16  1  0  0  0  0
 15 96  1  0  0  0  0
 15 97  1  0  0  0  0
 16 17  1  0  0  0  0
 16 98  1  0  0  0  0
 17 18  1  0  0  0  0
 17 99  1  0  0  0  0
 17100  1  0  0  0  0
 18 19  1  0  0  0  0
 18101  1  0  0  0  0
 18102  1  0  0  0  0
 19 20  1  0  0  0  0
 19103  1  0  0  0  0
 19104  1  0  0  0  0
 20 21  1  0  0  0  0
 20105  1  0  0  0  0
 21 22  1  0  0  0  0
 21106  1  0  0  0  0
 21107  1  0  0  0  0
 22 23  1  0  0  0  0
 22108  1  0  0  0  0
 22109  1  0  0  0  0
 23 24  1  0  0  0  0
 23110  1  0  0  0  0
 23111  1  0  0  0  0
 24 25  1  0  0  0  0
 24112  1  0  0  0  0
 25 26  1  0  0  0  0
 25113  1  0  0  0  0
 25114  1  0  0  0  0
 26 27  1  0  0  0  0
 26115  1  0  0  0  0
 26116  1  0  0  0  0
 27 28  1  0  0  0  0
 27117  1  0  0  0  0
 27118  1  0  0  0  0
 28 29  1  0  0  0  0
 28119  1  0  0  0  0
 29 30  1  0  0  0  0
 29120  1  0  0  0  0
 29121  1  0  0  0  0
 30 31  1  0  0  0  0
 30122  1  0  0  0  0
 30123  1  0  0  0  0
 31 32  1  0  0  0  0
 31124  1  0  0  0  0
 31125  1  0  0  0  0
 32 33  1  0  0  0  0
 32126  1  0  0  0  0
 33 34  1  0  0  0  0
 33127  1  0  0  0  0
 33128  1  0  0  0  0
 34 35  1  0  0  0  0
 34129  1  0  0  0  0
 34130  1  0  0  0  0
 35 36  1  0  0  0  0
 35131  1  0  0  0  0
 35132  1  0  0  0  0
 36 37  1  0  0  0  0
 36133  1  0  0  0  0
 37 38  1  0  0  0  0
 37134  1  0  0  0  0
 37135  1  0  0  0  0
 38 39  1  0  0  0  0
 38136  1  0  0  0  0
 38137  1  0  0  0  0
 39 40  1  0  0  0  0
 40 41  1  0  0  0  0
 40138  1  0  0  0  0
 41 42  1  0  0  0  0
 41139  1  0  0  0  0
 41140  1  0  0  0  0
 42 43  1  0  0  0  0
 42141  1  0  0  0  0
 42142  1  0  0  0  0
 43 44  1  0  0  0  0
 44 45  1  0  0  0  0
 44143  1  0  0  0  0
 45 46  1  0  0  0  0
 45144  1  0  0  0  0
 45145  1  0  0  0  0
 46 47  1  0  0  0  0
 46146  1  0  0  0  0
 46147  1  0  0  0  0
 47 48  1  0  0  0  0
 48 49  1  0  0  0  0
 48148  1  0  0  0  0
 49 50  1  0  0  0  0
 49149  1  0  0  0  0
 49150  1  0  0  0  0
 50 51  1  0  0  0  0
 50151  1  0  0  0  0
 50152  1  0  0  0  0
 51 52  1  0  0  0  0
 52 53  1  0  0  0  0
 52153  1  0  0  0  0
 53 54  1  0  0  0  0
 53154  1  0  0  0  0
 53155  1  0  0  0  0
 54 55  1  0  0  0  0
 54156  1  0  0  0  0
 54157  1  0  0  0  0
 55 56  1  0  0  0  0
 56 57  1  0  0  0  0
 56158  1  0  0  0  0
 57 58  1  0  0  0  0
 58 59  1  0  0  0  0
 58159  1  0  0  0  0
 58160  1  0  0  0  0
 59 60  1  0  0  0  0
 60 61  1  0  0  0  0
 60161  1  0  0  0  0
 61 62  1  0  0  0  0
 62 63  1  0  0  0  0
 62162  1  0  0  0  0
 63 64  1  0  0  0  0
 64 65  1  0  0  0  0
 64163  1  0  0  0  0
 65 66  1  0  0  0  0
 66 67  1  0  0  0  0
 66164  1  0  0  0  0
 67 68  1  0  0  0  0
 68 69  1  0  0  0  0
 68165  1  0  0  0  0
 69 70  1  0  0  0  0
 70 71  1  0  0  0  0
 70166  1  0  0  0  0
 71 72  1  0  0  0  0
 72 73  1  0  0  0  0
 72167  1  0  0  0  0
 73 74  1  0  0  0  0
 74 75  1  0  0  0  0
 75 76  1  0  0  0  0
 76 77  1  0  0  0  0
 77 78  1  0  0  0  0
 78168  1  0  0  0  0
M  END
$$$$
