
 OpenBabel04232216483D

 74 74  0  0  0  0  0  0  0  0999 V2000
    0.9351   -0.1242   -0.0503 C   0  0  0  0  0  0  0  0  0  0  0  0
    2.4361   -0.1261   -0.0270 C   0  0  0  0  0  0  0  0  0  0  0  0
    3.0695    1.0232   -0.6522 C   0  0  0  0  0  0  0  0  0  0  0  0
    3.7866    1.9383    0.0203 C   0  0  0  0  0  0  0  0  0  0  0  0
    4.0003    1.8957    1.4592 C   0  0  0  0  0  0  0  0  0  0  0  0
    3.2719    2.9704    2.2297 C   0  0  0  0  0  0  0  0  0  0  0  0
    4.1673    3.9085    3.0307 C   0  0  0  0  0  0  0  0  0  0  0  0
    5.1507    4.6872    2.1593 C   0  0  0  0  0  0  0  0  0  0  0  0
    6.0013    5.6073    3.0290 C   0  0  0  0  0  0  0  0  0  0  0  0
    7.0093    6.3869    2.1914 C   0  0  0  0  0  0  0  0  0  0  0  0
    7.8576    7.2970    3.0765 C   0  0  0  0  0  0  0  0  0  0  0  0
    8.8630    8.0833    2.2426 C   0  0  0  0  0  0  0  0  0  0  0  0
    9.6705    8.9569    3.0664 N   0  0  0  0  0  0  0  0  0  0  0  0
   10.8311    8.5311    3.6561 C   0  0  0  0  0  0  0  0  0  0  0  0
   11.3232    7.4155    3.5481 O   0  0  0  0  0  0  0  0  0  0  0  0
    4.7017    0.9219    2.0731 C   0  0  0  0  0  0  0  0  0  0  0  0
    5.3195   -0.2259    1.4134 C   0  0  0  0  0  0  0  0  0  0  0  0
    6.7022   -0.3318    1.5440 N   0  0  0  0  0  0  0  0  0  0  0  0
    7.5405   -0.3683    0.3460 C   0  0  0  0  0  0  0  0  0  0  0  0
    9.0132   -0.4409    0.7375 C   0  0  0  0  0  0  0  0  0  0  0  0
    9.8856   -0.4810   -0.5143 C   0  0  0  0  0  0  0  0  0  0  0  0
   11.3668   -0.5674   -0.1651 C   0  0  0  0  0  0  0  0  0  0  0  0
   12.2106   -0.6124   -1.4364 C   0  0  0  0  0  0  0  0  0  0  0  0
   13.6954   -0.7036   -1.1018 C   0  0  0  0  0  0  0  0  0  0  0  0
   14.5380   -0.7493   -2.3732 C   0  0  0  0  0  0  0  0  0  0  0  0
   16.0220   -0.8382   -2.0381 C   0  0  0  0  0  0  0  0  0  0  0  0
   16.8724   -0.8832   -3.2986 C   0  0  0  0  0  0  0  0  0  0  0  0
   18.2463   -0.9667   -2.9479 O   0  0  0  0  0  0  0  0  0  0  0  0
    4.5715   -1.1389    0.7571 C   0  0  0  0  0  0  0  0  0  0  0  0
    3.1283   -1.1001    0.5958 C   0  0  0  0  0  0  0  0  0  0  0  0
    0.5348    0.7063   -0.6435 H   0  0  0  0  0  0  0  0  0  0  0  0
    0.5478   -0.0052    0.9692 H   0  0  0  0  0  0  0  0  0  0  0  0
    0.5452   -1.0544   -0.4704 H   0  0  0  0  0  0  0  0  0  0  0  0
    2.9159    1.1379   -1.7214 H   0  0  0  0  0  0  0  0  0  0  0  0
    4.2044    2.7895   -0.5091 H   0  0  0  0  0  0  0  0  0  0  0  0
    2.5678    2.4806    2.9171 H   0  0  0  0  0  0  0  0  0  0  0  0
    2.6458    3.5689    1.5540 H   0  0  0  0  0  0  0  0  0  0  0  0
    4.7160    3.3423    3.7930 H   0  0  0  0  0  0  0  0  0  0  0  0
    3.5247    4.6156    3.5693 H   0  0  0  0  0  0  0  0  0  0  0  0
    4.6021    5.2756    1.4135 H   0  0  0  0  0  0  0  0  0  0  0  0
    5.8060    3.9996    1.6125 H   0  0  0  0  0  0  0  0  0  0  0  0
    6.5323    5.0096    3.7802 H   0  0  0  0  0  0  0  0  0  0  0  0
    5.3509    6.3049    3.5708 H   0  0  0  0  0  0  0  0  0  0  0  0
    6.4803    6.9860    1.4406 H   0  0  0  0  0  0  0  0  0  0  0  0
    7.6586    5.6878    1.6503 H   0  0  0  0  0  0  0  0  0  0  0  0
    8.3828    6.6962    3.8296 H   0  0  0  0  0  0  0  0  0  0  0  0
    7.2091    7.9908    3.6265 H   0  0  0  0  0  0  0  0  0  0  0  0
    8.3443    8.7149    1.5136 H   0  0  0  0  0  0  0  0  0  0  0  0
    9.5201    7.3981    1.6960 H   0  0  0  0  0  0  0  0  0  0  0  0
    9.3300    9.8870    3.2736 H   0  0  0  0  0  0  0  0  0  0  0  0
   11.2969    9.3247    4.2627 H   0  0  0  0  0  0  0  0  0  0  0  0
    4.8232    0.9370    3.1520 H   0  0  0  0  0  0  0  0  0  0  0  0
    7.0497    0.3683    2.1968 H   0  0  0  0  0  0  0  0  0  0  0  0
    7.3650    0.5386   -0.2463 H   0  0  0  0  0  0  0  0  0  0  0  0
    7.2824   -1.2325   -0.2766 H   0  0  0  0  0  0  0  0  0  0  0  0
    9.1943   -1.3314    1.3517 H   0  0  0  0  0  0  0  0  0  0  0  0
    9.2828    0.4282    1.3510 H   0  0  0  0  0  0  0  0  0  0  0  0
    9.7035    0.4169   -1.1179 H   0  0  0  0  0  0  0  0  0  0  0  0
    9.6043   -1.3446   -1.1294 H   0  0  0  0  0  0  0  0  0  0  0  0
   11.5547   -1.4651    0.4363 H   0  0  0  0  0  0  0  0  0  0  0  0
   11.6572    0.2982    0.4425 H   0  0  0  0  0  0  0  0  0  0  0  0
   12.0214    0.2858   -2.0372 H   0  0  0  0  0  0  0  0  0  0  0  0
   11.9154   -1.4760   -2.0451 H   0  0  0  0  0  0  0  0  0  0  0  0
   13.8833   -1.6018   -0.5012 H   0  0  0  0  0  0  0  0  0  0  0  0
   13.9891    0.1607   -0.4936 H   0  0  0  0  0  0  0  0  0  0  0  0
   14.3482    0.1488   -2.9736 H   0  0  0  0  0  0  0  0  0  0  0  0
   14.2424   -1.6131   -2.9812 H   0  0  0  0  0  0  0  0  0  0  0  0
   16.2222   -1.7296   -1.4304 H   0  0  0  0  0  0  0  0  0  0  0  0
   16.3226    0.0188   -1.4225 H   0  0  0  0  0  0  0  0  0  0  0  0
   16.7230    0.0118   -3.9109 H   0  0  0  0  0  0  0  0  0  0  0  0
   16.6225   -1.7596   -3.9047 H   0  0  0  0  0  0  0  0  0  0  0  0
   18.4568   -0.1867   -2.4062 H   0  0  0  0  0  0  0  0  0  0  0  0
    5.0533   -2.0188    0.3411 H   0  0  0  0  0  0  0  0  0  0  0  0
    2.5986   -1.9375    1.0437 H   0  0  0  0  0  0  0  0  0  0  0  0
  1  2  1  0  0  0  0
  1 31  1  0  0  0  0
  1 32  1  0  0  0  0
  1 33  1  0  0  0  0
  2  3  1  0  0  0  0
  2 30  2  0  0  0  0
  3  4  2  0  0  0  0
  3 34  1  0  0  0  0
  4  5  1  0  0  0  0
  4 35  1  0  0  0  0
  5  6  1  0  0  0  0
  5 16  2  0  0  0  0
  6  7  1  0  0  0  0
  6 36  1  0  0  0  0
  6 37  1  0  0  0  0
  7  8  1  0  0  0  0
  7 38  1  0  0  0  0
  7 39  1  0  0  0  0
  8  9  1  0  0  0  0
  8 40  1  0  0  0  0
  8 41  1  0  0  0  0
  9 10  1  0  0  0  0
  9 42  1  0  0  0  0
  9 43  1  0  0  0  0
 10 11  1  0  0  0  0
 10 44  1  0  0  0  0
 10 45  1  0  0  0  0
 11 12  1  0  0  0  0
 11 46  1  0  0  0  0
 11 47  1  0  0  0  0
 12 13  1  0  0  0  0
 12 48  1  0  0  0  0
 12 49  1  0  0  0  0
 13 14  1  0  0  0  0
 13 50  1  0  0  0  0
 14 15  2  0  0  0  0
 14 51  1  0  0  0  0
 16 17  1  0  0  0  0
 16 52  1  0  0  0  0
 17 18  1  0  0  0  0
 17 29  2  0  0  0  0
 18 19  1  0  0  0  0
 18 53  1  0  0  0  0
 19 20  1  0  0  0  0
 19 54  1  0  0  0  0
 19 55  1  0  0  0  0
 20 21  1  0  0  0  0
 20 56  1  0  0  0  0
 20 57  1  0  0  0  0
 21 22  1  0  0  0  0
 21 58  1  0  0  0  0
 21 59  1  0  0  0  0
 22 23  1  0  0  0  0
 22 60  1  0  0  0  0
 22 61  1  0  0  0  0
 23 24  1  0  0  0  0
 23 62  1  0  0  0  0
 23 63  1  0  0  0  0
 24 25  1  0  0  0  0
 24 64  1  0  0  0  0
 24 65  1  0  0  0  0
 25 26  1  0  0  0  0
 25 66  1  0  0  0  0
 25 67  1  0  0  0  0
 26 27  1  0  0  0  0
 26 68  1  0  0  0  0
 26 69  1  0  0  0  0
 27 28  1  0  0  0  0
 27 70  1  0  0  0  0
 27 71  1  0  0  0  0
 28 72  1  0  0  0  0
 29 30  1  0  0  0  0
 29 73  1  0  0  0  0
 30 74  1  0  0  0  0
M  END
$$$$
