
 OpenBabel04232216433D

 29 29  0  0  0  0  0  0  0  0999 V2000
    0.5231    0.6691    1.0288 C   0  0  0  0  0  0  0  0  0  0  0  0
    0.9244    1.1388   -0.2207 C   0  0  0  0  0  0  0  0  0  0  0  0
    0.4639    0.5142   -1.3775 C   0  0  0  0  0  0  0  0  0  0  0  0
   -0.4037   -0.5762   -1.2867 C   0  0  0  0  0  0  0  0  0  0  0  0
   -0.8237   -1.0486   -0.0359 C   0  0  0  0  0  0  0  0  0  0  0  0
   -1.7604   -2.2288    0.0602 C   0  0  0  0  0  0  0  0  0  0  0  0
   -1.0020   -3.5567    0.1034 C   0  0  0  0  0  0  0  0  0  0  0  0
   -1.9553   -4.7545    0.1634 C   0  0  0  0  0  0  0  0  0  0  0  0
   -1.1723   -6.0697    0.2081 C   0  0  0  0  0  0  0  0  0  0  0  0
   -2.0983   -7.2834    0.2676 C   0  0  0  0  0  0  0  0  0  0  0  0
   -1.3092   -8.5097    0.3136 N   0  0  0  0  0  0  0  0  0  0  0  0
   -0.3439   -0.4212    1.1219 C   0  0  0  0  0  0  0  0  0  0  0  0
    0.8860    1.1534    1.9324 H   0  0  0  0  0  0  0  0  0  0  0  0
    1.5973    1.9891   -0.2921 H   0  0  0  0  0  0  0  0  0  0  0  0
    0.7808    0.8749   -2.3536 H   0  0  0  0  0  0  0  0  0  0  0  0
   -0.7521   -1.0544   -2.1990 H   0  0  0  0  0  0  0  0  0  0  0  0
   -2.4477   -2.2136   -0.7950 H   0  0  0  0  0  0  0  0  0  0  0  0
   -2.3890   -2.1232    0.9535 H   0  0  0  0  0  0  0  0  0  0  0  0
   -0.3374   -3.5748    0.9764 H   0  0  0  0  0  0  0  0  0  0  0  0
   -0.3609   -3.6475   -0.7825 H   0  0  0  0  0  0  0  0  0  0  0  0
   -2.6139   -4.7468   -0.7141 H   0  0  0  0  0  0  0  0  0  0  0  0
   -2.5952   -4.6744    1.0505 H   0  0  0  0  0  0  0  0  0  0  0  0
   -0.5113   -6.0684    1.0838 H   0  0  0  0  0  0  0  0  0  0  0  0
   -0.5308   -6.1385   -0.6793 H   0  0  0  0  0  0  0  0  0  0  0  0
   -2.7544   -7.3061   -0.6093 H   0  0  0  0  0  0  0  0  0  0  0  0
   -2.7323   -7.2331    1.1591 H   0  0  0  0  0  0  0  0  0  0  0  0
   -0.7268   -8.5758   -0.5205 H   0  0  0  0  0  0  0  0  0  0  0  0
   -1.9314   -9.3161    0.2937 H   0  0  0  0  0  0  0  0  0  0  0  0
   -0.6453   -0.7771    2.1044 H   0  0  0  0  0  0  0  0  0  0  0  0
  1  2  1  0  0  0  0
  1 12  2  0  0  0  0
  1 13  1  0  0  0  0
  2  3  2  0  0  0  0
  2 14  1  0  0  0  0
  3  4  1  0  0  0  0
  3 15  1  0  0  0  0
  4  5  2  0  0  0  0
  4 16  1  0  0  0  0
  5  6  1  0  0  0  0
  5 12  1  0  0  0  0
  6  7  1  0  0  0  0
  6 17  1  0  0  0  0
  6 18  1  0  0  0  0
  7  8  1  0  0  0  0
  7 19  1  0  0  0  0
  7 20  1  0  0  0  0
  8  9  1  0  0  0  0
  8 21  1  0  0  0  0
  8 22  1  0  0  0  0
  9 10  1  0  0  0  0
  9 23  1  0  0  0  0
  9 24  1  0  0  0  0
 10 11  1  0  0  0  0
 10 25  1  0  0  0  0
 10 26  1  0  0  0  0
 11 27  1  0  0  0  0
 11 28  1  0  0  0  0
 12 29  1  0  0  0  0
M  END
$$$$
