
 OpenBabel04232216473D

 56 57  0  0  1  0  0  0  0  0999 V2000
    5.0600    0.0032   -1.3753 C   0  0  0  0  0  0  0  0  0  0  0  0
    5.8266    1.0214   -0.3663 C   0  0  3  0  0  0  0  0  0  0  0  0
    4.5315    1.7146    0.1649 C   0  0  0  0  0  0  0  0  0  0  0  0
    4.7431    2.2379    1.5452 C   0  0  0  0  0  0  0  0  0  0  0  0
    4.2016    3.6762    1.6542 C   0  0  3  0  0  0  0  0  0  0  0  0
    3.5985    4.0079    2.9822 C   0  0  0  0  0  0  0  0  0  0  0  0
    2.4681    4.6693    3.0448 C   0  0  0  0  0  0  0  0  0  0  0  0
    5.4695    4.4137    1.4295 C   0  0  0  0  0  0  0  0  0  0  0  0
    6.0173    5.7321    1.4670 N   0  0  0  0  0  0  0  0  0  0  0  0
    7.3332    5.2557    0.9836 C   0  0  0  0  0  0  0  0  0  0  0  0
    8.4215    6.0361    0.5508 C   0  0  0  0  0  0  0  0  0  0  0  0
    8.4555    7.2048    0.2894 O   0  0  0  0  0  0  0  0  0  0  0  0
    9.6214    5.1128    0.5406 C   0  0  0  0  0  0  0  0  0  0  0  0
    9.6565    3.7767    0.0984 C   0  0  0  0  0  0  0  0  0  0  0  0
   11.1851    3.4909   -0.2859 C   0  0  0  0  0  0  0  0  0  0  0  0
   12.5612    3.5141    0.5353 C   0  0  0  0  0  0  0  0  0  0  0  0
   12.9436    4.1013    1.9319 C   0  0  0  0  0  0  0  0  0  0  0  0
   12.1111    3.6129    3.1061 C   0  0  0  0  0  0  0  0  0  0  0  0
   10.7763    4.3189    3.3198 C   0  0  0  0  0  0  0  0  0  0  0  0
   10.6800    5.7537    2.7941 C   0  0  0  0  0  0  0  0  0  0  0  0
   10.6998    5.9300    1.2536 C   0  0  0  0  0  0  0  0  0  0  0  0
    8.5134    2.6838   -0.6353 C   0  0  0  0  0  0  0  0  0  0  0  0
    7.3461    1.8600   -0.7952 C   0  0  0  0  0  0  0  0  0  0  0  0
    4.2625   -0.5392   -0.8103 H   0  0  0  0  0  0  0  0  0  0  0  0
    5.6492   -0.8088   -1.7996 H   0  0  0  0  0  0  0  0  0  0  0  0
    4.4840    0.5154   -2.1626 H   0  0  0  0  0  0  0  0  0  0  0  0
    6.1654    0.3186    0.4116 H   0  0  0  0  0  0  0  0  0  0  0  0
    3.6873    1.0124    0.3092 H   0  0  0  0  0  0  0  0  0  0  0  0
    4.1373    2.4299   -0.5725 H   0  0  0  0  0  0  0  0  0  0  0  0
    5.8337    2.1888    1.6487 H   0  0  0  0  0  0  0  0  0  0  0  0
    4.3967    1.5691    2.3376 H   0  0  0  0  0  0  0  0  0  0  0  0
    3.4893    3.9377    0.8387 H   0  0  0  0  0  0  0  0  0  0  0  0
    4.0971    3.6285    3.8744 H   0  0  0  0  0  0  0  0  0  0  0  0
    1.9699    5.0439    2.1568 H   0  0  0  0  0  0  0  0  0  0  0  0
    2.0193    4.9008    4.0017 H   0  0  0  0  0  0  0  0  0  0  0  0
    5.5941    4.1016    0.3851 H   0  0  0  0  0  0  0  0  0  0  0  0
    6.1302    3.8821    2.1459 H   0  0  0  0  0  0  0  0  0  0  0  0
    6.1531    6.0408    2.4363 H   0  0  0  0  0  0  0  0  0  0  0  0
    7.1811    4.7081    0.0260 H   0  0  0  0  0  0  0  0  0  0  0  0
    7.7404    4.6145    1.7549 H   0  0  0  0  0  0  0  0  0  0  0  0
   11.3624    4.3044   -1.0165 H   0  0  0  0  0  0  0  0  0  0  0  0
   11.2317    2.6135   -0.9353 H   0  0  0  0  0  0  0  0  0  0  0  0
   13.2621    4.0431   -0.1336 H   0  0  0  0  0  0  0  0  0  0  0  0
   12.9346    2.4799    0.5295 H   0  0  0  0  0  0  0  0  0  0  0  0
   13.0655    5.1754    1.9455 H   0  0  0  0  0  0  0  0  0  0  0  0
   13.9681    3.7567    2.1214 H   0  0  0  0  0  0  0  0  0  0  0  0
   12.7155    3.7614    4.0133 H   0  0  0  0  0  0  0  0  0  0  0  0
   11.9494    2.5287    3.0332 H   0  0  0  0  0  0  0  0  0  0  0  0
   10.5855    4.3352    4.4031 H   0  0  0  0  0  0  0  0  0  0  0  0
    9.9713    3.7076    2.9035 H   0  0  0  0  0  0  0  0  0  0  0  0
   11.4731    6.3641    3.2458 H   0  0  0  0  0  0  0  0  0  0  0  0
    9.7424    6.1777    3.1819 H   0  0  0  0  0  0  0  0  0  0  0  0
   11.6708    5.8150    0.7848 H   0  0  0  0  0  0  0  0  0  0  0  0
   10.5523    7.0060    1.0986 H   0  0  0  0  0  0  0  0  0  0  0  0
    9.1023    2.5171   -1.5559 H   0  0  0  0  0  0  0  0  0  0  0  0
    7.4462    1.3478   -1.7768 H   0  0  0  0  0  0  0  0  0  0  0  0
  1  2  1  0  0  0  0
  1 24  1  0  0  0  0
  1 25  1  0  0  0  0
  1 26  1  0  0  0  0
  2  3  1  0  0  0  0
  2 23  1  0  0  0  0
  2 27  1  0  0  0  0
  3  4  1  0  0  0  0
  3 28  1  0  0  0  0
  3 29  1  0  0  0  0
  4  5  1  0  0  0  0
  4 30  1  0  0  0  0
  4 31  1  0  0  0  0
  5  6  1  0  0  0  0
  5  8  1  0  0  0  0
  5 32  1  0  0  0  0
  6  7  2  0  0  0  0
  6 33  1  0  0  0  0
  7 34  1  0  0  0  0
  7 35  1  0  0  0  0
  8  9  1  0  0  0  0
  8 36  1  0  0  0  0
  8 37  1  0  0  0  0
  9 10  1  0  0  0  0
  9 38  1  0  0  0  0
 10 11  1  0  0  0  0
 10 39  1  0  0  0  0
 10 40  1  0  0  0  0
 11 12  2  0  0  0  0
 11 13  1  0  0  0  0
 13 14  2  3  0  0  0
 13 21  1  0  0  0  0
 14 15  1  0  0  0  0
 14 22  1  0  0  0  0
 15 16  1  0  0  0  0
 15 41  1  0  0  0  0
 15 42  1  0  0  0  0
 16 17  1  0  0  0  0
 16 43  1  0  0  0  0
 16 44  1  0  0  0  0
 17 18  1  0  0  0  0
 17 45  1  0  0  0  0
 17 46  1  0  0  0  0
 18 19  1  0  0  0  0
 18 47  1  0  0  0  0
 18 48  1  0  0  0  0
 19 20  1  0  0  0  0
 19 49  1  0  0  0  0
 19 50  1  0  0  0  0
 20 21  1  0  0  0  0
 20 51  1  0  0  0  0
 20 52  1  0  0  0  0
 21 53  1  0  0  0  0
 21 54  1  0  0  0  0
 22 23  2  3  0  0  0
 22 55  1  0  0  0  0
 23 56  1  0  0  0  0
M  END
$$$$
