
 OpenBabel04232216453D

 42 44  0  0  0  0  0  0  0  0999 V2000
    1.7555   -2.3813    0.2450 C   0  0  0  0  0  0  0  0  0  0  0  0
    3.2401   -2.5549   -0.0469 C   0  0  0  0  0  0  0  0  0  0  0  0
    4.0237   -1.3110    0.1495 C   0  0  0  0  0  0  0  0  0  0  0  0
    4.7834   -0.7644   -0.7928 C   0  0  0  0  0  0  0  0  0  0  0  0
    5.8773    0.1764   -0.3760 C   0  0  0  0  0  0  0  0  0  0  0  0
    4.6566   -1.2416   -2.1550 C   0  0  0  0  0  0  0  0  0  0  0  0
    3.4761   -0.8043   -2.9603 C   0  0  0  0  0  0  0  0  0  0  0  0
    5.4148   -2.2663   -2.5688 C   0  0  0  0  0  0  0  0  0  0  0  0
    6.4608   -2.9020   -1.7839 C   0  0  0  0  0  0  0  0  0  0  0  0
    7.6775   -2.7051   -2.3809 C   0  0  0  0  0  0  0  0  0  0  0  0
    7.6727   -2.2225   -3.8165 C   0  0  0  0  0  0  0  0  0  0  0  0
    6.5858   -2.3907   -4.6184 C   0  0  0  0  0  0  0  0  0  0  0  0
    5.3591   -2.8434   -3.9126 C   0  0  0  0  0  0  0  0  0  0  0  0
    4.3842   -3.7538   -4.2109 C   0  0  0  0  0  0  0  0  0  0  0  0
    3.8763   -4.0969   -5.5752 C   0  0  0  0  0  0  0  0  0  0  0  0
    3.5352   -4.4079   -3.1531 C   0  0  0  0  0  0  0  0  0  0  0  0
    4.0517   -5.1690   -2.1487 C   0  0  0  0  0  0  0  0  0  0  0  0
    6.0185   -4.2039   -1.1747 C   0  0  0  0  0  0  0  0  0  0  0  0
    6.8520   -5.3350   -1.8565 C   0  0  0  0  0  0  0  0  0  0  0  0
    4.6503   -4.4089   -0.9844 C   0  0  0  0  0  0  0  0  0  0  0  0
    3.5675   -3.7504   -0.4368 N   0  0  0  0  0  0  0  0  0  0  0  0
    1.1600   -3.0561   -0.3799 H   0  0  0  0  0  0  0  0  0  0  0  0
    1.4335   -1.3564    0.0189 H   0  0  0  0  0  0  0  0  0  0  0  0
    1.5656   -2.5916    1.2981 H   0  0  0  0  0  0  0  0  0  0  0  0
    3.8463   -0.7731    1.0804 H   0  0  0  0  0  0  0  0  0  0  0  0
    5.5024    0.9496    0.3026 H   0  0  0  0  0  0  0  0  0  0  0  0
    6.3940    0.6544   -1.2088 H   0  0  0  0  0  0  0  0  0  0  0  0
    6.6306   -0.4004    0.1846 H   0  0  0  0  0  0  0  0  0  0  0  0
    2.9681    0.0466   -2.5119 H   0  0  0  0  0  0  0  0  0  0  0  0
    2.7381   -1.6135   -3.0017 H   0  0  0  0  0  0  0  0  0  0  0  0
    3.7513   -0.5492   -3.9882 H   0  0  0  0  0  0  0  0  0  0  0  0
    8.5878   -3.1984   -2.0464 H   0  0  0  0  0  0  0  0  0  0  0  0
    8.6043   -1.7658   -4.1634 H   0  0  0  0  0  0  0  0  0  0  0  0
    6.5487   -2.0410   -5.6335 H   0  0  0  0  0  0  0  0  0  0  0  0
    4.5040   -4.8198   -6.0924 H   0  0  0  0  0  0  0  0  0  0  0  0
    3.7625   -3.1846   -6.1691 H   0  0  0  0  0  0  0  0  0  0  0  0
    2.8611   -4.5213   -5.5062 H   0  0  0  0  0  0  0  0  0  0  0  0
    2.7417   -3.7215   -2.8589 H   0  0  0  0  0  0  0  0  0  0  0  0
    4.6439   -6.0324   -2.4323 H   0  0  0  0  0  0  0  0  0  0  0  0
    7.9281   -5.2418   -1.6975 H   0  0  0  0  0  0  0  0  0  0  0  0
    6.6970   -5.3227   -2.9484 H   0  0  0  0  0  0  0  0  0  0  0  0
    6.5739   -6.3355   -1.5039 H   0  0  0  0  0  0  0  0  0  0  0  0
  1  2  1  0  0  0  0
  1 22  1  0  0  0  0
  1 23  1  0  0  0  0
  1 24  1  0  0  0  0
  2  3  1  0  0  0  0
  2 21  2  3  0  0  0
  3  4  2  3  0  0  0
  3 25  1  0  0  0  0
  4  5  1  0  0  0  0
  4  6  1  0  0  0  0
  5 26  1  0  0  0  0
  5 27  1  0  0  0  0
  5 28  1  0  0  0  0
  6  7  1  0  0  0  0
  6  8  2  3  0  0  0
  7 29  1  0  0  0  0
  7 30  1  0  0  0  0
  7 31  1  0  0  0  0
  8  9  1  0  0  0  0
  8 13  1  0  0  0  0
  9 10  2  0  0  0  0
  9 18  1  0  0  0  0
 10 11  1  0  0  0  0
 10 32  1  0  0  0  0
 11 12  2  0  0  0  0
 11 33  1  0  0  0  0
 12 13  1  0  0  0  0
 12 34  1  0  0  0  0
 13 14  2  0  0  0  0
 14 15  1  0  0  0  0
 14 16  1  0  0  0  0
 15 35  1  0  0  0  0
 15 36  1  0  0  0  0
 15 37  1  0  0  0  0
 16 17  2  0  0  0  0
 16 38  1  0  0  0  0
 17 20  1  0  0  0  0
 17 39  1  0  0  0  0
 18 19  1  0  0  0  0
 18 20  2  0  0  0  0
 19 40  1  0  0  0  0
 19 41  1  0  0  0  0
 19 42  1  0  0  0  0
 20 21  1  0  0  0  0
M  END
$$$$
