
 OpenBabel04232216433D

 14 14  0  0  0  0  0  0  0  0999 V2000
   -1.1512   -1.2005    0.0110 C   0  0  0  0  0  0  0  0  0  0  0  0
   -1.8479    0.0050    0.0392 C   0  0  0  0  0  0  0  0  0  0  0  0
   -1.1476    1.2086    0.0090 C   0  0  0  0  0  0  0  0  0  0  0  0
    0.2493    1.2033   -0.0357 C   0  0  0  0  0  0  0  0  0  0  0  0
    0.9605    0.0008   -0.0075 C   0  0  0  0  0  0  0  0  0  0  0  0
    2.3495   -0.0016   -0.1910 N   0  0  0  0  0  0  0  0  0  0  0  0
    0.2456   -1.1997   -0.0334 C   0  0  0  0  0  0  0  0  0  0  0  0
   -1.6930   -2.1424    0.0065 H   0  0  0  0  0  0  0  0  0  0  0  0
   -2.9343    0.0071    0.0626 H   0  0  0  0  0  0  0  0  0  0  0  0
   -1.6859    2.1522    0.0022 H   0  0  0  0  0  0  0  0  0  0  0  0
    0.7789    2.1502   -0.0937 H   0  0  0  0  0  0  0  0  0  0  0  0
    2.8052    0.8412    0.1440 H   0  0  0  0  0  0  0  0  0  0  0  0
    2.8029   -0.8452    0.1449 H   0  0  0  0  0  0  0  0  0  0  0  0
    0.7718   -2.1485   -0.0897 H   0  0  0  0  0  0  0  0  0  0  0  0
  1  2  1  0  0  0  0
  1  7  2  0  0  0  0
  1  8  1  0  0  0  0
  2  3  2  0  0  0  0
  2  9  1  0  0  0  0
  3  4  1  0  0  0  0
  3 10  1  0  0  0  0
  4  5  2  0  0  0  0
  4 11  1  0  0  0  0
  5  6  1  0  0  0  0
  5  7  1  0  0  0  0
  6 12  1  0  0  0  0
  6 13  1  0  0  0  0
  7 14  1  0  0  0  0
M  END
$$$$
