
 OpenBabel04232217033D

 81 80  0  0  0  0  0  0  0  0999 V2000
    1.0043    0.0574   -0.0581 S   0  0  0  0  0  0  0  0  0  0  0  0
    2.7023    0.0999   -0.0443 O   0  0  0  0  0  0  0  0  0  0  0  0
    3.1968    1.6367    0.3695 S   0  0  0  0  0  0  0  0  0  0  0  0
    5.2945    1.5158    0.3369 S   0  0  0  0  0  0  0  0  0  0  0  0
    6.0103    3.4420    0.8556 S   0  0  0  0  0  0  0  0  0  0  0  0
    8.1153    3.4452    0.8565 S   0  0  0  0  0  0  0  0  0  0  0  0
    8.8015    5.3766    1.3765 S   0  0  0  0  0  0  0  0  0  0  0  0
   10.9137    5.3681    1.3742 S   0  0  0  0  0  0  0  0  0  0  0  0
   11.6057    7.2933    1.8926 S   0  0  0  0  0  0  0  0  0  0  0  0
   13.7157    7.2807    1.8892 S   0  0  0  0  0  0  0  0  0  0  0  0
   14.4066    9.2054    2.4074 S   0  0  0  0  0  0  0  0  0  0  0  0
   16.5160    9.1926    2.4040 S   0  0  0  0  0  0  0  0  0  0  0  0
   17.2066   11.1173    2.9222 S   0  0  0  0  0  0  0  0  0  0  0  0
   19.3160   11.1045    2.9188 S   0  0  0  0  0  0  0  0  0  0  0  0
   20.0066   13.0291    3.4370 S   0  0  0  0  0  0  0  0  0  0  0  0
   22.1160   13.0163    3.4336 S   0  0  0  0  0  0  0  0  0  0  0  0
   22.8066   14.9409    3.9518 S   0  0  0  0  0  0  0  0  0  0  0  0
   24.9160   14.9281    3.9483 S   0  0  0  0  0  0  0  0  0  0  0  0
   25.6066   16.8527    4.4665 S   0  0  0  0  0  0  0  0  0  0  0  0
   27.7160   16.8399    4.4631 S   0  0  0  0  0  0  0  0  0  0  0  0
   28.4066   18.7645    4.9813 S   0  0  0  0  0  0  0  0  0  0  0  0
   30.5159   18.7517    4.9779 S   0  0  0  0  0  0  0  0  0  0  0  0
   31.2066   20.6763    5.4961 S   0  0  0  0  0  0  0  0  0  0  0  0
   33.3159   20.6635    5.4926 S   0  0  0  0  0  0  0  0  0  0  0  0
   34.0066   22.5881    6.0109 S   0  0  0  0  0  0  0  0  0  0  0  0
   36.1159   22.5753    6.0074 S   0  0  0  0  0  0  0  0  0  0  0  0
   36.8066   24.4999    6.5256 S   0  0  0  0  0  0  0  0  0  0  0  0
   38.9159   24.4871    6.5222 S   0  0  0  0  0  0  0  0  0  0  0  0
   39.6065   26.4117    7.0404 S   0  0  0  0  0  0  0  0  0  0  0  0
   41.7159   26.3989    7.0370 S   0  0  0  0  0  0  0  0  0  0  0  0
   42.4065   28.3235    7.5552 S   0  0  0  0  0  0  0  0  0  0  0  0
   44.5159   28.3108    7.5517 S   0  0  0  0  0  0  0  0  0  0  0  0
   45.2065   30.2354    8.0699 S   0  0  0  0  0  0  0  0  0  0  0  0
   47.3159   30.2226    8.0665 S   0  0  0  0  0  0  0  0  0  0  0  0
   48.0065   32.1472    8.5847 S   0  0  0  0  0  0  0  0  0  0  0  0
   50.1159   32.1344    8.5813 S   0  0  0  0  0  0  0  0  0  0  0  0
   50.8065   34.0590    9.0995 S   0  0  0  0  0  0  0  0  0  0  0  0
   52.9159   34.0462    9.0960 S   0  0  0  0  0  0  0  0  0  0  0  0
   53.6065   35.9708    9.6143 S   0  0  0  0  0  0  0  0  0  0  0  0
   55.7159   35.9580    9.6108 S   0  0  0  0  0  0  0  0  0  0  0  0
   56.4065   37.8826   10.1290 S   0  0  0  0  0  0  0  0  0  0  0  0
   58.5159   37.8698   10.1256 S   0  0  0  0  0  0  0  0  0  0  0  0
   59.2065   39.7944   10.6438 S   0  0  0  0  0  0  0  0  0  0  0  0
   61.3159   39.7816   10.6404 S   0  0  0  0  0  0  0  0  0  0  0  0
   62.0065   41.7062   11.1586 S   0  0  0  0  0  0  0  0  0  0  0  0
   64.1159   41.6934   11.1551 S   0  0  0  0  0  0  0  0  0  0  0  0
   64.8065   43.6180   11.6733 S   0  0  0  0  0  0  0  0  0  0  0  0
   66.9158   43.6052   11.6699 S   0  0  0  0  0  0  0  0  0  0  0  0
   67.6065   45.5298   12.1881 S   0  0  0  0  0  0  0  0  0  0  0  0
   69.7158   45.5171   12.1847 S   0  0  0  0  0  0  0  0  0  0  0  0
   70.4065   47.4417   12.7029 S   0  0  0  0  0  0  0  0  0  0  0  0
   72.5158   47.4289   12.6994 S   0  0  0  0  0  0  0  0  0  0  0  0
   73.2065   49.3535   13.2177 S   0  0  0  0  0  0  0  0  0  0  0  0
   75.3158   49.3407   13.2142 S   0  0  0  0  0  0  0  0  0  0  0  0
   76.0064   51.2653   13.7324 S   0  0  0  0  0  0  0  0  0  0  0  0
   78.1158   51.2525   13.7290 S   0  0  0  0  0  0  0  0  0  0  0  0
   78.8064   53.1771   14.2472 S   0  0  0  0  0  0  0  0  0  0  0  0
   80.9158   53.1643   14.2438 S   0  0  0  0  0  0  0  0  0  0  0  0
   81.6064   55.0889   14.7620 S   0  0  0  0  0  0  0  0  0  0  0  0
   83.7158   55.0761   14.7585 S   0  0  0  0  0  0  0  0  0  0  0  0
   84.4064   57.0007   15.2768 S   0  0  0  0  0  0  0  0  0  0  0  0
   86.5158   56.9879   15.2733 S   0  0  0  0  0  0  0  0  0  0  0  0
   87.2064   58.9125   15.7915 S   0  0  0  0  0  0  0  0  0  0  0  0
   89.3158   58.8997   15.7881 S   0  0  0  0  0  0  0  0  0  0  0  0
   90.0064   60.8243   16.3063 S   0  0  0  0  0  0  0  0  0  0  0  0
   92.1158   60.8115   16.3029 S   0  0  0  0  0  0  0  0  0  0  0  0
   92.8064   62.7361   16.8211 S   0  0  0  0  0  0  0  0  0  0  0  0
   94.9158   62.7233   16.8176 S   0  0  0  0  0  0  0  0  0  0  0  0
   95.6064   64.6480   17.3358 S   0  0  0  0  0  0  0  0  0  0  0  0
   97.7158   64.6352   17.3324 S   0  0  0  0  0  0  0  0  0  0  0  0
   98.4064   66.5597   17.8506 S   0  0  0  0  0  0  0  0  0  0  0  0
  100.5153   66.5465   17.8471 S   0  0  0  0  0  0  0  0  0  0  0  0
  101.2044   68.4697   18.3649 S   0  0  0  0  0  0  0  0  0  0  0  0
  103.3088   68.4552   18.3608 S   0  0  0  0  0  0  0  0  0  0  0  0
  103.9896   70.3747   18.8778 S   0  0  0  0  0  0  0  0  0  0  0  0
  106.0839   70.3399   18.8813 S   0  0  0  0  0  0  0  0  0  0  0  0
  106.7664   72.2510   19.3501 S   0  0  0  0  0  0  0  0  0  0  0  0
  108.8539   72.2039   19.3688 S   0  0  0  0  0  0  0  0  0  0  0  0
  109.4721   71.7365   17.4564 S   0  0  0  0  0  0  0  0  0  0  0  0
    0.6995   -1.2075   -0.3985 H   0  0  0  0  0  0  0  0  0  0  0  0
  110.8288   71.7337   17.5346 H   0  0  0  0  0  0  0  0  0  0  0  0
  1  2  1  0  0  0  0
  1 80  1  0  0  0  0
  2  3  1  0  0  0  0
  3  4  1  0  0  0  0
  4  5  1  0  0  0  0
  5  6  1  0  0  0  0
  6  7  1  0  0  0  0
  7  8  1  0  0  0  0
  8  9  1  0  0  0  0
  9 10  1  0  0  0  0
 10 11  1  0  0  0  0
 11 12  1  0  0  0  0
 12 13  1  0  0  0  0
 13 14  1  0  0  0  0
 14 15  1  0  0  0  0
 15 16  1  0  0  0  0
 16 17  1  0  0  0  0
 17 18  1  0  0  0  0
 18 19  1  0  0  0  0
 19 20  1  0  0  0  0
 20 21  1  0  0  0  0
 21 22  1  0  0  0  0
 22 23  1  0  0  0  0
 23 24  1  0  0  0  0
 24 25  1  0  0  0  0
 25 26  1  0  0  0  0
 26 27  1  0  0  0  0
 27 28  1  0  0  0  0
 28 29  1  0  0  0  0
 29 30  1  0  0  0  0
 30 31  1  0  0  0  0
 31 32  1  0  0  0  0
 32 33  1  0  0  0  0
 33 34  1  0  0  0  0
 34 35  1  0  0  0  0
 35 36  1  0  0  0  0
 36 37  1  0  0  0  0
 37 38  1  0  0  0  0
 38 39  1  0  0  0  0
 39 40  1  0  0  0  0
 40 41  1  0  0  0  0
 41 42  1  0  0  0  0
 42 43  1  0  0  0  0
 43 44  1  0  0  0  0
 44 45  1  0  0  0  0
 45 46  1  0  0  0  0
 46 47  1  0  0  0  0
 47 48  1  0  0  0  0
 48 49  1  0  0  0  0
 49 50  1  0  0  0  0
 50 51  1  0  0  0  0
 51 52  1  0  0  0  0
 52 53  1  0  0  0  0
 53 54  1  0  0  0  0
 54 55  1  0  0  0  0
 55 56  1  0  0  0  0
 56 57  1  0  0  0  0
 57 58  1  0  0  0  0
 58 59  1  0  0  0  0
 59 60  1  0  0  0  0
 60 61  1  0  0  0  0
 61 62  1  0  0  0  0
 62 63  1  0  0  0  0
 63 64  1  0  0  0  0
 64 65  1  0  0  0  0
 65 66  1  0  0  0  0
 66 67  1  0  0  0  0
 67 68  1  0  0  0  0
 68 69  1  0  0  0  0
 69 70  1  0  0  0  0
 70 71  1  0  0  0  0
 71 72  1  0  0  0  0
 72 73  1  0  0  0  0
 73 74  1  0  0  0  0
 74 75  1  0  0  0  0
 75 76  1  0  0  0  0
 76 77  1  0  0  0  0
 77 78  1  0  0  0  0
 78 79  1  0  0  0  0
 79 81  1  0  0  0  0
M  END
$$$$
