
 OpenBabel04232216593D

 24 23  0  0  0  0  0  0  0  0999 V2000
    2.7772   -0.1907    1.0655 O   0  0  0  0  0  0  0  0  0  0  0  0
    2.3181   -0.1151   -0.0753 C   0  0  0  0  0  0  0  0  0  0  0  0
    0.9034   -0.5876   -0.4130 C   0  0  0  0  0  0  0  0  0  0  0  0
    0.0089   -0.4880    0.7516 N   0  0  0  0  0  0  0  0  0  0  0  0
   -0.2522    0.9014    1.1137 C   0  0  0  0  0  0  0  0  0  0  0  0
    3.1100    0.4681   -1.2327 C   0  0  0  0  0  0  0  0  0  0  0  0
    4.6201    0.4261   -1.0159 C   0  0  0  0  0  0  0  0  0  0  0  0
    5.1566   -1.0061   -0.9564 C   0  0  0  0  0  0  0  0  0  0  0  0
    6.6654   -1.0283   -0.7793 C   0  0  0  0  0  0  0  0  0  0  0  0
    0.9759   -1.6350   -0.7237 H   0  0  0  0  0  0  0  0  0  0  0  0
    0.5023   -0.0137   -1.2541 H   0  0  0  0  0  0  0  0  0  0  0  0
    0.4791   -0.9399    1.5401 H   0  0  0  0  0  0  0  0  0  0  0  0
   -0.7075    1.4485    0.2829 H   0  0  0  0  0  0  0  0  0  0  0  0
    0.6570    1.4266    1.4268 H   0  0  0  0  0  0  0  0  0  0  0  0
   -0.9519    0.9300    1.9539 H   0  0  0  0  0  0  0  0  0  0  0  0
    2.7838    1.5080   -1.3550 H   0  0  0  0  0  0  0  0  0  0  0  0
    2.8536   -0.0765   -2.1474 H   0  0  0  0  0  0  0  0  0  0  0  0
    4.8834    0.9609   -0.0953 H   0  0  0  0  0  0  0  0  0  0  0  0
    5.1049    0.9585   -1.8436 H   0  0  0  0  0  0  0  0  0  0  0  0
    4.8912   -1.5420   -1.8751 H   0  0  0  0  0  0  0  0  0  0  0  0
    4.6996   -1.5512   -0.1233 H   0  0  0  0  0  0  0  0  0  0  0  0
    7.1661   -0.5448   -1.6237 H   0  0  0  0  0  0  0  0  0  0  0  0
    7.0223   -2.0608   -0.7164 H   0  0  0  0  0  0  0  0  0  0  0  0
    6.9594   -0.5106    0.1395 H   0  0  0  0  0  0  0  0  0  0  0  0
  1  2  2  0  0  0  0
  2  3  1  0  0  0  0
  2  6  1  0  0  0  0
  3  4  1  0  0  0  0
  3 10  1  0  0  0  0
  3 11  1  0  0  0  0
  4  5  1  0  0  0  0
  4 12  1  0  0  0  0
  5 13  1  0  0  0  0
  5 14  1  0  0  0  0
  5 15  1  0  0  0  0
  6  7  1  0  0  0  0
  6 16  1  0  0  0  0
  6 17  1  0  0  0  0
  7  8  1  0  0  0  0
  7 18  1  0  0  0  0
  7 19  1  0  0  0  0
  8  9  1  0  0  0  0
  8 20  1  0  0  0  0
  8 21  1  0  0  0  0
  9 22  1  0  0  0  0
  9 23  1  0  0  0  0
  9 24  1  0  0  0  0
M  END
$$$$
