
 OpenBabel04232216583D

151150  0  0  0  0  0  0  0  0999 V2000
   22.3120  -16.6373   -7.9822 N   0  0  0  0  0  0  0  0  0  0  0  0
   21.9824  -17.9384   -7.6706 N   0  0  0  0  0  0  0  0  0  0  0  0
   22.8745  -18.5252   -7.0023 N   0  0  0  0  0  0  0  0  0  0  0  0
   22.5142  -19.8188   -6.6668 N   0  0  0  0  0  0  0  0  0  0  0  0
   23.3973  -20.6458   -5.9772 N   0  0  0  0  0  0  0  0  0  0  0  0
   23.1514  -20.5987   -4.5720 N   0  0  0  0  0  0  0  0  0  0  0  0
   24.0960  -21.3699   -3.8185 N   0  0  0  0  0  0  0  0  0  0  0  0
   25.4484  -20.9720   -4.0583 N   0  0  0  0  0  0  0  0  0  0  0  0
   25.6231  -19.5964   -3.6870 N   0  0  0  0  0  0  0  0  0  0  0  0
   25.3740  -19.4368   -2.2715 N   0  0  0  0  0  0  0  0  0  0  0  0
   26.2613  -20.2542   -1.4918 N   0  0  0  0  0  0  0  0  0  0  0  0
   27.6133  -19.8881   -1.7840 N   0  0  0  0  0  0  0  0  0  0  0  0
   27.8017  -18.5033   -1.4194 N   0  0  0  0  0  0  0  0  0  0  0  0
   27.5303  -18.3099   -0.0203 N   0  0  0  0  0  0  0  0  0  0  0  0
   28.3666  -19.1632    0.7518 N   0  0  0  0  0  0  0  0  0  0  0  0
   29.7465  -18.8112    0.4856 N   0  0  0  0  0  0  0  0  0  0  0  0
   29.9666  -17.4250    0.8193 N   0  0  0  0  0  0  0  0  0  0  0  0
   29.6446  -17.2136    2.1837 N   0  0  0  0  0  0  0  0  0  0  0  0
   30.5051  -18.0309    3.0230 N   0  0  0  0  0  0  0  0  0  0  0  0
   31.8835  -17.7291    2.7632 N   0  0  0  0  0  0  0  0  0  0  0  0
   32.0938  -16.3559    3.0378 N   0  0  0  0  0  0  0  0  0  0  0  0
   31.8097  -16.0876    4.4382 N   0  0  0  0  0  0  0  0  0  0  0  0
   32.6066  -16.9280    5.2837 N   0  0  0  0  0  0  0  0  0  0  0  0
   33.9690  -16.6618    5.0155 N   0  0  0  0  0  0  0  0  0  0  0  0
   34.2447  -15.2797    5.3206 N   0  0  0  0  0  0  0  0  0  0  0  0
   33.8977  -14.9835    6.6976 N   0  0  0  0  0  0  0  0  0  0  0  0
   34.6811  -15.7915    7.5820 N   0  0  0  0  0  0  0  0  0  0  0  0
   36.0539  -15.5452    7.3138 N   0  0  0  0  0  0  0  0  0  0  0  0
   36.3557  -14.1587    7.5918 N   0  0  0  0  0  0  0  0  0  0  0  0
   35.9810  -13.8252    8.9331 N   0  0  0  0  0  0  0  0  0  0  0  0
   36.7753  -14.6109    9.8271 N   0  0  0  0  0  0  0  0  0  0  0  0
   38.1745  -14.3938    9.5683 N   0  0  0  0  0  0  0  0  0  0  0  0
   38.5249  -13.0075    9.8386 N   0  0  0  0  0  0  0  0  0  0  0  0
   38.1254  -12.6635   11.1539 N   0  0  0  0  0  0  0  0  0  0  0  0
   38.9039  -13.4608   12.0618 N   0  0  0  0  0  0  0  0  0  0  0  0
   40.3181  -13.2895   11.8264 N   0  0  0  0  0  0  0  0  0  0  0  0
   40.6702  -11.9308   12.0493 N   0  0  0  0  0  0  0  0  0  0  0  0
   40.3379  -11.5495   13.3871 N   0  0  0  0  0  0  0  0  0  0  0  0
   41.0535  -12.3866   14.3304 N   0  0  0  0  0  0  0  0  0  0  0  0
   42.4433  -12.2380   14.0811 N   0  0  0  0  0  0  0  0  0  0  0  0
   42.7923  -10.8394   14.2671 N   0  0  0  0  0  0  0  0  0  0  0  0
   42.4456  -10.4125   15.6008 N   0  0  0  0  0  0  0  0  0  0  0  0
   43.1464  -11.2116   16.5644 N   0  0  0  0  0  0  0  0  0  0  0  0
   44.5686  -11.0979   16.3756 N   0  0  0  0  0  0  0  0  0  0  0  0
   44.9497   -9.7326   16.5145 N   0  0  0  0  0  0  0  0  0  0  0  0
   44.6071   -9.2969   17.8430 N   0  0  0  0  0  0  0  0  0  0  0  0
   45.2433  -10.1356   18.8147 N   0  0  0  0  0  0  0  0  0  0  0  0
   46.6673  -10.0269   18.6631 N   0  0  0  0  0  0  0  0  0  0  0  0
   47.1120   -8.6571   18.8344 N   0  0  0  0  0  0  0  0  0  0  0  0
   46.6873   -8.1901   20.0920 N   0  0  0  0  0  0  0  0  0  0  0  0
   47.3364   -9.0080   21.0856 N   0  0  0  0  0  0  0  0  0  0  0  0
   48.7767   -8.9408   20.9246 N   0  0  0  0  0  0  0  0  0  0  0  0
   49.2256   -7.5981   21.0587 N   0  0  0  0  0  0  0  0  0  0  0  0
   48.8426   -7.0994   22.3400 N   0  0  0  0  0  0  0  0  0  0  0  0
   49.4423   -7.9477   23.3243 N   0  0  0  0  0  0  0  0  0  0  0  0
   50.8886   -7.9204   23.1955 N   0  0  0  0  0  0  0  0  0  0  0  0
   51.3844   -6.5801   23.3458 N   0  0  0  0  0  0  0  0  0  0  0  0
   51.0509   -6.0483   24.6374 N   0  0  0  0  0  0  0  0  0  0  0  0
   51.5885   -6.8983   25.6325 N   0  0  0  0  0  0  0  0  0  0  0  0
   53.0211   -6.9116   25.4918 N   0  0  0  0  0  0  0  0  0  0  0  0
   53.5109   -5.5599   25.6046 N   0  0  0  0  0  0  0  0  0  0  0  0
   53.1343   -5.0168   26.9093 N   0  0  0  0  0  0  0  0  0  0  0  0
   53.6833   -5.8586   27.9360 N   0  0  0  0  0  0  0  0  0  0  0  0
   55.1231   -5.8823   27.8391 N   0  0  0  0  0  0  0  0  0  0  0  0
   55.6565   -4.5584   27.9364 N   0  0  0  0  0  0  0  0  0  0  0  0
   55.2909   -3.9612   29.1971 N   0  0  0  0  0  0  0  0  0  0  0  0
   55.8162   -4.7708   30.2471 N   0  0  0  0  0  0  0  0  0  0  0  0
   57.2439   -4.8423   30.1006 N   0  0  0  0  0  0  0  0  0  0  0  0
   57.7665   -3.4689   30.1745 C   0  0  0  0  0  0  0  0  0  0  0  0
   59.2740   -3.4933   30.0288 C   0  0  0  0  0  0  0  0  0  0  0  0
   59.8321   -2.0801   30.1122 C   0  0  0  0  0  0  0  0  0  0  0  0
   61.3460   -2.1040   29.9768 C   0  0  0  0  0  0  0  0  0  0  0  0
   61.9005   -0.6978   30.0627 C   0  0  0  0  0  0  0  0  0  0  0  0
   21.6569  -16.0692   -8.5237 H   0  0  0  0  0  0  0  0  0  0  0  0
   23.1926  -16.2526   -7.6563 H   0  0  0  0  0  0  0  0  0  0  0  0
   21.6525  -20.2182   -7.0468 H   0  0  0  0  0  0  0  0  0  0  0  0
   24.3374  -20.3267   -6.2278 H   0  0  0  0  0  0  0  0  0  0  0  0
   22.2084  -20.8884   -4.3210 H   0  0  0  0  0  0  0  0  0  0  0  0
   24.0134  -22.3494   -4.0399 H   0  0  0  0  0  0  0  0  0  0  0  0
   25.6606  -21.1256   -5.0480 H   0  0  0  0  0  0  0  0  0  0  0  0
   24.9767  -19.0023   -4.2390 H   0  0  0  0  0  0  0  0  0  0  0  0
   24.4196  -19.7006   -2.0282 H   0  0  0  0  0  0  0  0  0  0  0  0
   26.1173  -21.2340   -1.7212 H   0  0  0  0  0  0  0  0  0  0  0  0
   27.7610  -20.0078   -2.7965 H   0  0  0  0  0  0  0  0  0  0  0  0
   27.1458  -17.9147   -1.9407 H   0  0  0  0  0  0  0  0  0  0  0  0
   26.5607  -18.5611    0.1659 H   0  0  0  0  0  0  0  0  0  0  0  0
   28.1673  -20.1279    0.4700 H   0  0  0  0  0  0  0  0  0  0  0  0
   29.8907  -18.8843   -0.5196 H   0  0  0  0  0  0  0  0  0  0  0  0
   29.3218  -16.8602    0.2570 H   0  0  0  0  0  0  0  0  0  0  0  0
   28.6424  -17.4302    2.3106 H   0  0  0  0  0  0  0  0  0  0  0  0
   30.3685  -19.0022    2.7629 H   0  0  0  0  0  0  0  0  0  0  0  0
   32.0585  -17.8622    1.7708 H   0  0  0  0  0  0  0  0  0  0  0  0
   31.4745  -15.8139    2.4164 H   0  0  0  0  0  0  0  0  0  0  0  0
   30.8409  -16.3313    4.6245 H   0  0  0  0  0  0  0  0  0  0  0  0
   32.4420  -17.8982    5.0485 H   0  0  0  0  0  0  0  0  0  0  0  0
   34.1182  -16.8545    4.0172 H   0  0  0  0  0  0  0  0  0  0  0  0
   33.6318  -14.7050    4.7409 H   0  0  0  0  0  0  0  0  0  0  0  0
   32.8832  -15.1776    6.7935 H   0  0  0  0  0  0  0  0  0  0  0  0
   34.5262  -16.7695    7.3702 H   0  0  0  0  0  0  0  0  0  0  0  0
   36.2213  -15.7354    6.3193 H   0  0  0  0  0  0  0  0  0  0  0  0
   35.7676  -13.5977    6.9818 H   0  0  0  0  0  0  0  0  0  0  0  0
   34.9762  -14.0249    9.0431 H   0  0  0  0  0  0  0  0  0  0  0  0
   36.6052  -15.5918    9.6169 H   0  0  0  0  0  0  0  0  0  0  0  0
   38.3443  -14.6480    8.5786 H   0  0  0  0  0  0  0  0  0  0  0  0
   37.9564  -12.4308    9.2201 H   0  0  0  0  0  0  0  0  0  0  0  0
   37.1295  -12.8821   11.2575 H   0  0  0  0  0  0  0  0  0  0  0  0
   38.6971  -14.4285   11.8372 H   0  0  0  0  0  0  0  0  0  0  0  0
   40.5060  -13.5148   10.8500 H   0  0  0  0  0  0  0  0  0  0  0  0
   40.1192  -11.3654   11.4089 H   0  0  0  0  0  0  0  0  0  0  0  0
   39.3435  -11.7186   13.5141 H   0  0  0  0  0  0  0  0  0  0  0  0
   40.7519  -13.3465   14.1101 H   0  0  0  0  0  0  0  0  0  0  0  0
   42.6347  -12.4490   13.1092 H   0  0  0  0  0  0  0  0  0  0  0  0
   42.2327  -10.3150   13.5699 H   0  0  0  0  0  0  0  0  0  0  0  0
   41.4481  -10.5488   15.7587 H   0  0  0  0  0  0  0  0  0  0  0  0
   42.8891  -12.1825   16.4088 H   0  0  0  0  0  0  0  0  0  0  0  0
   44.7496  -11.4264   15.4126 H   0  0  0  0  0  0  0  0  0  0  0  0
   44.4145   -9.1643   15.8703 H   0  0  0  0  0  0  0  0  0  0  0  0
   43.6079   -9.4470   17.9544 H   0  0  0  0  0  0  0  0  0  0  0  0
   44.9174  -11.0977   18.6313 H   0  0  0  0  0  0  0  0  0  0  0  0
   46.9126  -10.2993   17.7171 H   0  0  0  0  0  0  0  0  0  0  0  0
   46.6187   -8.0980   18.1421 H   0  0  0  0  0  0  0  0  0  0  0  0
   45.6672   -8.2816   20.1276 H   0  0  0  0  0  0  0  0  0  0  0  0
   47.0530   -9.9805   20.9097 H   0  0  0  0  0  0  0  0  0  0  0  0
   49.0196   -9.2455   19.9797 H   0  0  0  0  0  0  0  0  0  0  0  0
   48.7621   -7.0399   20.3512 H   0  0  0  0  0  0  0  0  0  0  0  0
   47.8284   -7.2205   22.3927 H   0  0  0  0  0  0  0  0  0  0  0  0
   49.1047   -8.9002   23.1343 H   0  0  0  0  0  0  0  0  0  0  0  0
   51.1397   -8.2259   22.2538 H   0  0  0  0  0  0  0  0  0  0  0  0
   50.9555   -6.0005   22.6300 H   0  0  0  0  0  0  0  0  0  0  0  0
   50.0414   -6.0932   24.7221 H   0  0  0  0  0  0  0  0  0  0  0  0
   51.2526   -7.8381   25.4848 H   0  0  0  0  0  0  0  0  0  0  0  0
   53.2035   -7.2730   24.5458 H   0  0  0  0  0  0  0  0  0  0  0  0
   53.0652   -5.0086   24.8503 H   0  0  0  0  0  0  0  0  0  0  0  0
   52.1055   -5.0271   26.9740 H   0  0  0  0  0  0  0  0  0  0  0  0
   53.3420   -6.8127   27.8473 H   0  0  0  0  0  0  0  0  0  0  0  0
   55.3713   -6.2443   26.9134 H   0  0  0  0  0  0  0  0  0  0  0  0
   55.2537   -4.0011   27.1879 H   0  0  0  0  0  0  0  0  0  0  0  0
   54.2746   -3.9996   29.2338 H   0  0  0  0  0  0  0  0  0  0  0  0
   55.4297   -5.7066   30.0764 H   0  0  0  0  0  0  0  0  0  0  0  0
   57.4058   -5.2141   29.1564 H   0  0  0  0  0  0  0  0  0  0  0  0
   57.4919   -3.0130   31.1339 H   0  0  0  0  0  0  0  0  0  0  0  0
   57.3627   -2.8276   29.3773 H   0  0  0  0  0  0  0  0  0  0  0  0
   59.5500   -3.9375   29.0647 H   0  0  0  0  0  0  0  0  0  0  0  0
   59.7094   -4.1082   30.8232 H   0  0  0  0  0  0  0  0  0  0  0  0
   59.5539   -1.6264   31.0717 H   0  0  0  0  0  0  0  0  0  0  0  0
   59.4000   -1.4592   29.3170 H   0  0  0  0  0  0  0  0  0  0  0  0
   61.6267   -2.5514   29.0165 H   0  0  0  0  0  0  0  0  0  0  0  0
   61.7807   -2.7193   30.7728 H   0  0  0  0  0  0  0  0  0  0  0  0
   61.4882   -0.0745   29.2630 H   0  0  0  0  0  0  0  0  0  0  0  0
   62.9888   -0.7145   29.9658 H   0  0  0  0  0  0  0  0  0  0  0  0
   61.6425   -0.2430   31.0243 H   0  0  0  0  0  0  0  0  0  0  0  0
  1  2  1  0  0  0  0
  1 74  1  0  0  0  0
  1 75  1  0  0  0  0
  2  3  2  3  0  0  0
  3  4  1  0  0  0  0
  4  5  1  0  0  0  0
  4 76  1  0  0  0  0
  5  6  1  0  0  0  0
  5 77  1  0  0  0  0
  6  7  1  0  0  0  0
  6 78  1  0  0  0  0
  7  8  1  0  0  0  0
  7 79  1  0  0  0  0
  8  9  1  0  0  0  0
  8 80  1  0  0  0  0
  9 10  1  0  0  0  0
  9 81  1  0  0  0  0
 10 11  1  0  0  0  0
 10 82  1  0  0  0  0
 11 12  1  0  0  0  0
 11 83  1  0  0  0  0
 12 13  1  0  0  0  0
 12 84  1  0  0  0  0
 13 14  1  0  0  0  0
 13 85  1  0  0  0  0
 14 15  1  0  0  0  0
 14 86  1  0  0  0  0
 15 16  1  0  0  0  0
 15 87  1  0  0  0  0
 16 17  1  0  0  0  0
 16 88  1  0  0  0  0
 17 18  1  0  0  0  0
 17 89  1  0  0  0  0
 18 19  1  0  0  0  0
 18 90  1  0  0  0  0
 19 20  1  0  0  0  0
 19 91  1  0  0  0  0
 20 21  1  0  0  0  0
 20 92  1  0  0  0  0
 21 22  1  0  0  0  0
 21 93  1  0  0  0  0
 22 23  1  0  0  0  0
 22 94  1  0  0  0  0
 23 24  1  0  0  0  0
 23 95  1  0  0  0  0
 24 25  1  0  0  0  0
 24 96  1  0  0  0  0
 25 26  1  0  0  0  0
 25 97  1  0  0  0  0
 26 27  1  0  0  0  0
 26 98  1  0  0  0  0
 27 28  1  0  0  0  0
 27 99  1  0  0  0  0
 28 29  1  0  0  0  0
 28100  1  0  0  0  0
 29 30  1  0  0  0  0
 29101  1  0  0  0  0
 30 31  1  0  0  0  0
 30102  1  0  0  0  0
 31 32  1  0  0  0  0
 31103  1  0  0  0  0
 32 33  1  0  0  0  0
 32104  1  0  0  0  0
 33 34  1  0  0  0  0
 33105  1  0  0  0  0
 34 35  1  0  0  0  0
 34106  1  0  0  0  0
 35 36  1  0  0  0  0
 35107  1  0  0  0  0
 36 37  1  0  0  0  0
 36108  1  0  0  0  0
 37 38  1  0  0  0  0
 37109  1  0  0  0  0
 38 39  1  0  0  0  0
 38110  1  0  0  0  0
 39 40  1  0  0  0  0
 39111  1  0  0  0  0
 40 41  1  0  0  0  0
 40112  1  0  0  0  0
 41 42  1  0  0  0  0
 41113  1  0  0  0  0
 42 43  1  0  0  0  0
 42114  1  0  0  0  0
 43 44  1  0  0  0  0
 43115  1  0  0  0  0
 44 45  1  0  0  0  0
 44116  1  0  0  0  0
 45 46  1  0  0  0  0
 45117  1  0  0  0  0
 46 47  1  0  0  0  0
 46118  1  0  0  0  0
 47 48  1  0  0  0  0
 47119  1  0  0  0  0
 48 49  1  0  0  0  0
 48120  1  0  0  0  0
 49 50  1  0  0  0  0
 49121  1  0  0  0  0
 50 51  1  0  0  0  0
 50122  1  0  0  0  0
 51 52  1  0  0  0  0
 51123  1  0  0  0  0
 52 53  1  0  0  0  0
 52124  1  0  0  0  0
 53 54  1  0  0  0  0
 53125  1  0  0  0  0
 54 55  1  0  0  0  0
 54126  1  0  0  0  0
 55 56  1  0  0  0  0
 55127  1  0  0  0  0
 56 57  1  0  0  0  0
 56128  1  0  0  0  0
 57 58  1  0  0  0  0
 57129  1  0  0  0  0
 58 59  1  0  0  0  0
 58130  1  0  0  0  0
 59 60  1  0  0  0  0
 59131  1  0  0  0  0
 60 61  1  0  0  0  0
 60132  1  0  0  0  0
 61 62  1  0  0  0  0
 61133  1  0  0  0  0
 62 63  1  0  0  0  0
 62134  1  0  0  0  0
 63 64  1  0  0  0  0
 63135  1  0  0  0  0
 64 65  1  0  0  0  0
 64136  1  0  0  0  0
 65 66  1  0  0  0  0
 65137  1  0  0  0  0
 66 67  1  0  0  0  0
 66138  1  0  0  0  0
 67 68  1  0  0  0  0
 67139  1  0  0  0  0
 68 69  1  0  0  0  0
 68140  1  0  0  0  0
 69 70  1  0  0  0  0
 69141  1  0  0  0  0
 69142  1  0  0  0  0
 70 71  1  0  0  0  0
 70143  1  0  0  0  0
 70144  1  0  0  0  0
 71 72  1  0  0  0  0
 71145  1  0  0  0  0
 71146  1  0  0  0  0
 72 73  1  0  0  0  0
 72147  1  0  0  0  0
 72148  1  0  0  0  0
 73149  1  0  0  0  0
 73150  1  0  0  0  0
 73151  1  0  0  0  0
M  END
$$$$
