
 OpenBabel04232216493D

 62 63  0  0  1  0  0  0  0  0999 V2000
    6.2260   -6.5912   -3.1858 C   0  0  0  0  0  0  0  0  0  0  0  0
    6.6021   -5.3587   -2.3912 C   0  0  3  0  0  0  0  0  0  0  0  0
    7.0772   -5.7530   -0.9800 C   0  0  0  0  0  0  0  0  0  0  0  0
    7.5083   -4.5482   -0.1736 C   0  0  0  0  0  0  0  0  0  0  0  0
    6.3304   -3.5712   -0.0113 C   0  0  0  0  0  0  0  0  0  0  0  0
    6.0270   -2.6669   -1.2299 C   0  0  0  0  0  0  0  0  0  0  0  0
    7.2966   -2.1997   -1.9668 C   0  0  3  0  0  0  0  0  0  0  0  0
    8.3241   -1.6572   -0.9496 C   0  0  0  0  0  0  0  0  0  0  0  0
    7.7877   -0.4804   -0.1590 C   0  0  0  0  0  0  0  0  0  0  0  0
    8.8750   -0.0224    0.8107 C   0  0  0  0  0  0  0  0  0  0  0  0
   10.0329    0.3608    0.0698 N   0  0  0  0  0  0  0  0  0  0  0  0
   10.2927    1.6408   -0.4099 C   0  0  0  0  0  0  0  0  0  0  0  0
    9.4776    2.5284   -0.1881 O   0  0  0  0  0  0  0  0  0  0  0  0
   11.5948    1.9148   -1.1825 C   0  0  0  0  0  0  0  0  0  0  0  0
   12.3527    0.6186   -1.8582 C   0  0  0  0  0  0  0  0  0  0  0  0
   13.5078    0.9211   -2.5534 C   0  0  0  0  0  0  0  0  0  0  0  0
   12.1781    3.1770   -1.3536 C   0  0  0  0  0  0  0  0  0  0  0  0
   11.4764    4.3675   -0.7205 C   0  0  0  0  0  0  0  0  0  0  0  0
   12.2753    5.6320   -1.0360 C   0  0  0  0  0  0  0  0  0  0  0  0
   11.5714    6.8253   -0.4034 C   0  0  0  0  0  0  0  0  0  0  0  0
   12.3371    8.1047   -0.6953 C   0  0  0  0  0  0  0  0  0  0  0  0
   11.6378    9.3011   -0.0629 C   0  0  0  0  0  0  0  0  0  0  0  0
   12.4117   10.5694   -0.3617 C   0  0  0  0  0  0  0  0  0  0  0  0
    7.9440   -3.2224   -2.8956 C   0  0  0  0  0  0  0  0  0  0  0  0
    7.6420   -4.5198   -3.1091 C   0  0  0  0  0  0  0  0  0  0  0  0
    5.4104   -7.1170   -2.6770 H   0  0  0  0  0  0  0  0  0  0  0  0
    7.0801   -7.2627   -3.2827 H   0  0  0  0  0  0  0  0  0  0  0  0
    5.8724   -6.3005   -4.1799 H   0  0  0  0  0  0  0  0  0  0  0  0
    5.6509   -4.8381   -2.3297 H   0  0  0  0  0  0  0  0  0  0  0  0
    7.9254   -6.4421   -1.0466 H   0  0  0  0  0  0  0  0  0  0  0  0
    6.2762   -6.2541   -0.4277 H   0  0  0  0  0  0  0  0  0  0  0  0
    8.3832   -4.1529   -0.6886 H   0  0  0  0  0  0  0  0  0  0  0  0
    7.9222   -4.8120    0.8043 H   0  0  0  0  0  0  0  0  0  0  0  0
    6.5351   -2.9402    0.8597 H   0  0  0  0  0  0  0  0  0  0  0  0
    5.4270   -4.1323    0.2509 H   0  0  0  0  0  0  0  0  0  0  0  0
    5.4378   -1.8032   -0.8959 H   0  0  0  0  0  0  0  0  0  0  0  0
    5.3252   -3.1177   -1.9341 H   0  0  0  0  0  0  0  0  0  0  0  0
    7.0033   -1.3662   -2.6188 H   0  0  0  0  0  0  0  0  0  0  0  0
    9.2673   -1.4041   -1.4416 H   0  0  0  0  0  0  0  0  0  0  0  0
    8.6147   -2.3851   -0.1905 H   0  0  0  0  0  0  0  0  0  0  0  0
    6.8954   -0.7384    0.4260 H   0  0  0  0  0  0  0  0  0  0  0  0
    7.4621    0.3078   -0.8453 H   0  0  0  0  0  0  0  0  0  0  0  0
    9.1587   -0.8405    1.4754 H   0  0  0  0  0  0  0  0  0  0  0  0
    8.5441    0.8465    1.3851 H   0  0  0  0  0  0  0  0  0  0  0  0
   10.5899   -0.4471   -0.0831 H   0  0  0  0  0  0  0  0  0  0  0  0
   11.8959   -0.3728   -1.7347 H   0  0  0  0  0  0  0  0  0  0  0  0
   14.3912    1.1327   -3.0893 H   0  0  0  0  0  0  0  0  0  0  0  0
   11.4803    4.2667    0.3709 H   0  0  0  0  0  0  0  0  0  0  0  0
   10.4848    4.5003   -1.1678 H   0  0  0  0  0  0  0  0  0  0  0  0
   12.3537    5.7748   -2.1212 H   0  0  0  0  0  0  0  0  0  0  0  0
   13.3026    5.5501   -0.6546 H   0  0  0  0  0  0  0  0  0  0  0  0
   11.4857    6.6769    0.6806 H   0  0  0  0  0  0  0  0  0  0  0  0
   10.5496    6.9038   -0.7965 H   0  0  0  0  0  0  0  0  0  0  0  0
   12.4140    8.2507   -1.7814 H   0  0  0  0  0  0  0  0  0  0  0  0
   13.3580    8.0197   -0.3002 H   0  0  0  0  0  0  0  0  0  0  0  0
   11.5614    9.1623    1.0219 H   0  0  0  0  0  0  0  0  0  0  0  0
   10.6170    9.3908   -0.4529 H   0  0  0  0  0  0  0  0  0  0  0  0
   13.4279   10.5021    0.0393 H   0  0  0  0  0  0  0  0  0  0  0  0
   11.9165   11.4328    0.0894 H   0  0  0  0  0  0  0  0  0  0  0  0
   12.4792   10.7320   -1.4420 H   0  0  0  0  0  0  0  0  0  0  0  0
    8.8359   -2.8508   -3.4046 H   0  0  0  0  0  0  0  0  0  0  0  0
    8.2924   -5.0711   -3.7882 H   0  0  0  0  0  0  0  0  0  0  0  0
  1  2  1  0  0  0  0
  1 26  1  0  0  0  0
  1 27  1  0  0  0  0
  1 28  1  0  0  0  0
  2  3  1  0  0  0  0
  2 25  1  0  0  0  0
  2 29  1  0  0  0  0
  3  4  1  0  0  0  0
  3 30  1  0  0  0  0
  3 31  1  0  0  0  0
  4  5  1  0  0  0  0
  4 32  1  0  0  0  0
  4 33  1  0  0  0  0
  5  6  1  0  0  0  0
  5 34  1  0  0  0  0
  5 35  1  0  0  0  0
  6  7  1  0  0  0  0
  6 36  1  0  0  0  0
  6 37  1  0  0  0  0
  7  8  1  0  0  0  0
  7 24  1  0  0  0  0
  7 38  1  0  0  0  0
  8  9  1  0  0  0  0
  8 39  1  0  0  0  0
  8 40  1  0  0  0  0
  9 10  1  0  0  0  0
  9 41  1  0  0  0  0
  9 42  1  0  0  0  0
 10 11  1  0  0  0  0
 10 43  1  0  0  0  0
 10 44  1  0  0  0  0
 11 12  1  0  0  0  0
 11 45  1  0  0  0  0
 12 13  2  0  0  0  0
 12 14  1  0  0  0  0
 14 15  1  0  0  0  0
 14 17  2  0  0  0  0
 15 16  2  0  0  0  0
 15 46  1  0  0  0  0
 16 17  1  0  0  0  0
 16 47  1  0  0  0  0
 17 18  1  0  0  0  0
 18 19  1  0  0  0  0
 18 48  1  0  0  0  0
 18 49  1  0  0  0  0
 19 20  1  0  0  0  0
 19 50  1  0  0  0  0
 19 51  1  0  0  0  0
 20 21  1  0  0  0  0
 20 52  1  0  0  0  0
 20 53  1  0  0  0  0
 21 22  1  0  0  0  0
 21 54  1  0  0  0  0
 21 55  1  0  0  0  0
 22 23  1  0  0  0  0
 22 56  1  0  0  0  0
 22 57  1  0  0  0  0
 23 58  1  0  0  0  0
 23 59  1  0  0  0  0
 23 60  1  0  0  0  0
 24 25  2  0  0  0  0
 24 61  1  0  0  0  0
 25 62  1  0  0  0  0
M  END
$$$$
