
 OpenBabel04232216473D

193193  0  0  1  0  0  0  0  0999 V2000
    3.3758  -24.3822   39.9458 C   0  0  0  0  0  0  0  0  0  0  0  0
    4.0231  -24.9092   38.7117 C   0  0  3  0  0  0  0  0  0  0  0  0
    5.0394  -24.2732   38.0824 C   0  0  0  0  0  0  0  0  0  0  0  0
    3.9546  -24.0078   37.4166 C   0  0  0  0  0  0  0  0  0  0  0  0
    2.5106  -24.0315   37.0589 C   0  0  0  0  0  0  0  0  0  0  0  0
    2.3570  -23.9186   35.6507 O   0  0  0  0  0  0  0  0  0  0  0  0
    0.9180  -24.0313   35.4221 O   0  0  0  0  0  0  0  0  0  0  0  0
    0.2047  -22.9482   36.0573 O   0  0  0  0  0  0  0  0  0  0  0  0
    0.7955  -21.7060   35.6803 O   0  0  0  0  0  0  0  0  0  0  0  0
    0.3012  -20.6829   36.5117 O   0  0  0  0  0  0  0  0  0  0  0  0
    0.7694  -19.4506   36.0129 O   0  0  0  0  0  0  0  0  0  0  0  0
    0.1681  -18.4300   36.7745 O   0  0  0  0  0  0  0  0  0  0  0  0
    0.6838  -17.2134   36.3069 O   0  0  0  0  0  0  0  0  0  0  0  0
    0.0466  -16.2282   37.0878 O   0  0  0  0  0  0  0  0  0  0  0  0
    0.5236  -15.0155   36.6315 O   0  0  0  0  0  0  0  0  0  0  0  0
   -0.0574  -14.0348   37.4081 O   0  0  0  0  0  0  0  0  0  0  0  0
    0.4274  -12.8364   36.9137 O   0  0  0  0  0  0  0  0  0  0  0  0
   -0.1772  -11.8333   37.6446 O   0  0  0  0  0  0  0  0  0  0  0  0
    0.3518  -10.6418   37.1680 O   0  0  0  0  0  0  0  0  0  0  0  0
   -0.2409   -9.6450   37.9307 O   0  0  0  0  0  0  0  0  0  0  0  0
    0.2410   -8.4379   37.4625 O   0  0  0  0  0  0  0  0  0  0  0  0
   -0.3678   -7.4661   38.2378 O   0  0  0  0  0  0  0  0  0  0  0  0
    0.1053   -6.2429   37.7869 O   0  0  0  0  0  0  0  0  0  0  0  0
   -0.5074   -5.2692   38.5670 O   0  0  0  0  0  0  0  0  0  0  0  0
   -0.0338   -4.0434   38.1139 O   0  0  0  0  0  0  0  0  0  0  0  0
   -0.6418   -3.0523   38.8904 O   0  0  0  0  0  0  0  0  0  0  0  0
   -0.0884   -1.9047   38.3437 C   0  0  0  0  0  0  0  0  0  0  0  0
   -0.7247   -0.8425   39.1579 C   0  0  0  0  0  0  0  0  0  0  0  0
   -0.2067    0.4658   38.6610 C   0  0  0  0  0  0  0  0  0  0  0  0
   -0.8466    1.5449   39.4836 C   0  0  0  0  0  0  0  0  0  0  0  0
   -0.3333    2.8720   38.9936 C   0  0  0  0  0  0  0  0  0  0  0  0
   -0.9658    3.9700   39.8122 C   0  0  0  0  0  0  0  0  0  0  0  0
   -0.4557    5.3062   39.3236 C   0  0  0  0  0  0  0  0  0  0  0  0
   -1.0859    6.4131   40.1403 C   0  0  0  0  0  0  0  0  0  0  0  0
   -0.5774    7.7540   39.6539 C   0  0  0  0  0  0  0  0  0  0  0  0
   -1.2074    8.8639   40.4705 C   0  0  0  0  0  0  0  0  0  0  0  0
   -0.6993   10.2055   39.9836 C   0  0  0  0  0  0  0  0  0  0  0  0
   -1.3281   11.3181   40.7959 C   0  0  0  0  0  0  0  0  0  0  0  0
   -0.8201   12.6574   40.2958 C   0  0  0  0  0  0  0  0  0  0  0  0
   -1.4505   13.7660   41.1047 C   0  0  0  0  0  0  0  0  0  0  0  0
   -0.9457   15.1241   40.6365 C   0  0  0  0  0  0  0  0  0  0  0  0
   -1.5719   16.2408   41.4551 C   0  0  0  0  0  0  0  0  0  0  0  0
   -1.2136   16.0940   42.9277 C   0  0  0  0  0  0  0  0  0  0  0  0
   -1.8433   17.1985   43.7424 C   0  0  0  0  0  0  0  0  0  0  0  0
   -1.4784   17.0170   45.2041 C   0  0  0  0  0  0  0  0  0  0  0  0
   -2.1059   18.1259   46.0229 C   0  0  0  0  0  0  0  0  0  0  0  0
   -1.7428   17.9560   47.4847 C   0  0  0  0  0  0  0  0  0  0  0  0
   -2.3688   19.0704   48.3004 C   0  0  0  0  0  0  0  0  0  0  0  0
   -2.0047   18.9036   49.7630 C   0  0  0  0  0  0  0  0  0  0  0  0
   -2.6290   20.0192   50.5788 C   0  0  0  0  0  0  0  0  0  0  0  0
   -2.2650   19.8524   52.0416 C   0  0  0  0  0  0  0  0  0  0  0  0
   -2.8892   20.9680   52.8576 C   0  0  0  0  0  0  0  0  0  0  0  0
   -2.5268   20.8001   54.3206 C   0  0  0  0  0  0  0  0  0  0  0  0
   -3.1511   21.9157   55.1367 C   0  0  0  0  0  0  0  0  0  0  0  0
   -2.7887   21.7477   56.5998 C   0  0  0  0  0  0  0  0  0  0  0  0
   -3.4146   22.8623   57.4160 C   0  0  0  0  0  0  0  0  0  0  0  0
   -3.0521   22.6944   58.8791 C   0  0  0  0  0  0  0  0  0  0  0  0
   -3.6764   23.8099   59.6951 C   0  0  0  0  0  0  0  0  0  0  0  0
   -3.3124   23.6432   61.1580 C   0  0  0  0  0  0  0  0  0  0  0  0
   -3.9383   24.7577   61.9743 C   0  0  0  0  0  0  0  0  0  0  0  0
   -3.5758   24.5897   63.4374 C   0  0  0  0  0  0  0  0  0  0  0  0
   -4.2035   25.7030   64.2541 C   0  0  0  0  0  0  0  0  0  0  0  0
   -3.8427   25.5342   65.7175 C   0  0  0  0  0  0  0  0  0  0  0  0
   -4.4721   26.6464   66.5343 C   0  0  0  0  0  0  0  0  0  0  0  0
   -4.1095   26.4786   67.9974 C   0  0  0  0  0  0  0  0  0  0  0  0
   -4.7374   27.5919   68.8138 C   0  0  0  0  0  0  0  0  0  0  0  0
   -4.3748   27.4239   70.2769 C   0  0  0  0  0  0  0  0  0  0  0  0
   -5.0036   28.5363   71.0938 C   0  0  0  0  0  0  0  0  0  0  0  0
   -4.6433   28.3669   72.5574 C   0  0  0  0  0  0  0  0  0  0  0  0
   -5.2685   29.4820   73.3736 C   0  0  0  0  0  0  0  0  0  0  0  0
   -4.9089   29.3125   74.8376 C   0  0  0  0  0  0  0  0  0  0  0  0
   -5.5374   30.4251   75.6551 C   0  0  0  0  0  0  0  0  0  0  0  0
   -5.1752   30.2581   77.1193 C   0  0  0  0  0  0  0  0  0  0  0  0
   -5.8031   31.3716   77.9378 C   0  0  0  0  0  0  0  0  0  0  0  0
   -5.4405   31.2079   79.4033 C   0  0  0  0  0  0  0  0  0  0  0  0
   -6.0684   32.3225   80.2241 C   0  0  0  0  0  0  0  0  0  0  0  0
   -5.7068   32.1611   81.6924 C   0  0  0  0  0  0  0  0  0  0  0  0
   -6.3297   33.2744   82.5235 C   0  0  0  0  0  0  0  0  0  0  0  0
   -5.9678   33.1114   83.9872 C   0  0  0  0  0  0  0  0  0  0  0  0
    3.7641  -24.9037   40.8138 H   0  0  0  0  0  0  0  0  0  0  0  0
    2.2917  -24.5320   39.8994 H   0  0  0  0  0  0  0  0  0  0  0  0
    3.5532  -23.3041   40.0694 H   0  0  0  0  0  0  0  0  0  0  0  0
    3.8332  -25.9592   38.5088 H   0  0  0  0  0  0  0  0  0  0  0  0
    6.1011  -24.1074   38.1181 H   0  0  0  0  0  0  0  0  0  0  0  0
    2.0374  -23.1766   37.5510 H   0  0  0  0  0  0  0  0  0  0  0  0
    2.0049  -24.9447   37.3818 H   0  0  0  0  0  0  0  0  0  0  0  0
   -0.3459   -1.8342   37.2810 H   0  0  0  0  0  0  0  0  0  0  0  0
    1.0017   -1.9254   38.4533 H   0  0  0  0  0  0  0  0  0  0  0  0
   -0.4933   -1.0025   40.2203 H   0  0  0  0  0  0  0  0  0  0  0  0
   -1.8178   -0.9144   39.0706 H   0  0  0  0  0  0  0  0  0  0  0  0
   -0.4492    0.5838   37.5974 H   0  0  0  0  0  0  0  0  0  0  0  0
    0.8863    0.4943   38.7538 H   0  0  0  0  0  0  0  0  0  0  0  0
   -0.6040    1.4016   40.5442 H   0  0  0  0  0  0  0  0  0  0  0  0
   -1.9385    1.4912   39.3888 H   0  0  0  0  0  0  0  0  0  0  0  0
   -0.5761    2.9964   37.9310 H   0  0  0  0  0  0  0  0  0  0  0  0
    0.7595    2.9060   39.0846 H   0  0  0  0  0  0  0  0  0  0  0  0
   -0.7214    3.8334   40.8729 H   0  0  0  0  0  0  0  0  0  0  0  0
   -2.0580    3.9225   39.7209 H   0  0  0  0  0  0  0  0  0  0  0  0
   -0.6993    5.4335   38.2615 H   0  0  0  0  0  0  0  0  0  0  0  0
    0.6370    5.3446   39.4133 H   0  0  0  0  0  0  0  0  0  0  0  0
   -0.8420    6.2800   41.2015 H   0  0  0  0  0  0  0  0  0  0  0  0
   -2.1783    6.3689   40.0497 H   0  0  0  0  0  0  0  0  0  0  0  0
   -0.8209    7.8838   38.5921 H   0  0  0  0  0  0  0  0  0  0  0  0
    0.5152    7.7949   39.7439 H   0  0  0  0  0  0  0  0  0  0  0  0
   -0.9635    8.7327   41.5319 H   0  0  0  0  0  0  0  0  0  0  0  0
   -2.2998    8.8213   40.3803 H   0  0  0  0  0  0  0  0  0  0  0  0
   -0.9435   10.3364   38.9224 H   0  0  0  0  0  0  0  0  0  0  0  0
    0.3931   10.2483   40.0738 H   0  0  0  0  0  0  0  0  0  0  0  0
   -1.0837   11.1909   41.8587 H   0  0  0  0  0  0  0  0  0  0  0  0
   -2.4211   11.2761   40.7100 H   0  0  0  0  0  0  0  0  0  0  0  0
   -1.0638   12.7861   39.2363 H   0  0  0  0  0  0  0  0  0  0  0  0
    0.2715   12.7028   40.3954 H   0  0  0  0  0  0  0  0  0  0  0  0
   -1.1952   13.5897   42.1545 H   0  0  0  0  0  0  0  0  0  0  0  0
   -2.5442   13.7281   41.0283 H   0  0  0  0  0  0  0  0  0  0  0  0
   -1.1895   15.2672   39.5777 H   0  0  0  0  0  0  0  0  0  0  0  0
    0.1469   15.1687   40.7255 H   0  0  0  0  0  0  0  0  0  0  0  0
   -2.6618   16.2237   41.3308 H   0  0  0  0  0  0  0  0  0  0  0  0
   -1.2190   17.2085   41.0808 H   0  0  0  0  0  0  0  0  0  0  0  0
   -0.1232   16.0963   43.0477 H   0  0  0  0  0  0  0  0  0  0  0  0
   -1.5789   15.1436   43.3302 H   0  0  0  0  0  0  0  0  0  0  0  0
   -2.9335   17.1683   43.6242 H   0  0  0  0  0  0  0  0  0  0  0  0
   -1.4959   18.1723   43.3807 H   0  0  0  0  0  0  0  0  0  0  0  0
   -0.3878   17.0311   45.3229 H   0  0  0  0  0  0  0  0  0  0  0  0
   -1.8285   16.0406   45.5644 H   0  0  0  0  0  0  0  0  0  0  0  0
   -3.1961   18.1076   45.9025 H   0  0  0  0  0  0  0  0  0  0  0  0
   -1.7548   19.0995   45.6597 H   0  0  0  0  0  0  0  0  0  0  0  0
   -0.6524   17.9717   47.6036 H   0  0  0  0  0  0  0  0  0  0  0  0
   -2.0952   16.9825   47.8474 H   0  0  0  0  0  0  0  0  0  0  0  0
   -3.4593   19.0538   48.1817 H   0  0  0  0  0  0  0  0  0  0  0  0
   -2.0175   20.0436   47.9358 H   0  0  0  0  0  0  0  0  0  0  0  0
   -0.9142   18.9188   49.8811 H   0  0  0  0  0  0  0  0  0  0  0  0
   -2.3572   17.9308   50.1275 H   0  0  0  0  0  0  0  0  0  0  0  0
   -3.7195   20.0040   50.4605 H   0  0  0  0  0  0  0  0  0  0  0  0
   -2.2765   20.9918   50.2140 H   0  0  0  0  0  0  0  0  0  0  0  0
   -1.1744   19.8675   52.1598 H   0  0  0  0  0  0  0  0  0  0  0  0
   -2.6175   18.8797   52.4062 H   0  0  0  0  0  0  0  0  0  0  0  0
   -3.9796   20.9537   52.7383 H   0  0  0  0  0  0  0  0  0  0  0  0
   -2.5356   21.9406   52.4937 H   0  0  0  0  0  0  0  0  0  0  0  0
   -1.4364   20.8144   54.4400 H   0  0  0  0  0  0  0  0  0  0  0  0
   -2.8804   19.8275   54.6844 H   0  0  0  0  0  0  0  0  0  0  0  0
   -4.2415   21.9013   55.0173 H   0  0  0  0  0  0  0  0  0  0  0  0
   -2.7975   22.8883   54.7729 H   0  0  0  0  0  0  0  0  0  0  0  0
   -1.6983   21.7634   56.7192 H   0  0  0  0  0  0  0  0  0  0  0  0
   -3.1411   20.7745   56.9632 H   0  0  0  0  0  0  0  0  0  0  0  0
   -4.5050   22.8466   57.2966 H   0  0  0  0  0  0  0  0  0  0  0  0
   -3.0622   23.8354   57.0525 H   0  0  0  0  0  0  0  0  0  0  0  0
   -1.9617   22.7087   58.9985 H   0  0  0  0  0  0  0  0  0  0  0  0
   -3.4057   21.7217   59.2429 H   0  0  0  0  0  0  0  0  0  0  0  0
   -4.7669   23.7947   59.5768 H   0  0  0  0  0  0  0  0  0  0  0  0
   -3.3239   24.7827   59.3305 H   0  0  0  0  0  0  0  0  0  0  0  0
   -2.2219   23.6597   61.2764 H   0  0  0  0  0  0  0  0  0  0  0  0
   -3.6637   22.6699   61.5223 H   0  0  0  0  0  0  0  0  0  0  0  0
   -5.0286   24.7419   61.8548 H   0  0  0  0  0  0  0  0  0  0  0  0
   -3.5860   25.7309   61.6108 H   0  0  0  0  0  0  0  0  0  0  0  0
   -2.4855   24.6068   63.5571 H   0  0  0  0  0  0  0  0  0  0  0  0
   -3.9270   23.6159   63.8004 H   0  0  0  0  0  0  0  0  0  0  0  0
   -5.2937   25.6866   64.1333 H   0  0  0  0  0  0  0  0  0  0  0  0
   -3.8513   26.6768   63.8919 H   0  0  0  0  0  0  0  0  0  0  0  0
   -2.7525   25.5521   65.8385 H   0  0  0  0  0  0  0  0  0  0  0  0
   -4.1935   24.5599   66.0795 H   0  0  0  0  0  0  0  0  0  0  0  0
   -5.5624   26.6276   66.4146 H   0  0  0  0  0  0  0  0  0  0  0  0
   -4.1225   27.6209   66.1716 H   0  0  0  0  0  0  0  0  0  0  0  0
   -3.0192   26.4961   68.1171 H   0  0  0  0  0  0  0  0  0  0  0  0
   -4.4604   25.5047   68.3605 H   0  0  0  0  0  0  0  0  0  0  0  0
   -5.8277   27.5745   68.6940 H   0  0  0  0  0  0  0  0  0  0  0  0
   -4.3865   28.5658   68.4508 H   0  0  0  0  0  0  0  0  0  0  0  0
   -3.2845   27.4425   70.3966 H   0  0  0  0  0  0  0  0  0  0  0  0
   -4.7246   26.4495   70.6395 H   0  0  0  0  0  0  0  0  0  0  0  0
   -6.0937   28.5191   70.9727 H   0  0  0  0  0  0  0  0  0  0  0  0
   -4.6520   29.5104   70.7321 H   0  0  0  0  0  0  0  0  0  0  0  0
   -3.5531   28.3806   72.6785 H   0  0  0  0  0  0  0  0  0  0  0  0
   -4.9980   27.3941   72.9196 H   0  0  0  0  0  0  0  0  0  0  0  0
   -6.3587   29.4681   73.2522 H   0  0  0  0  0  0  0  0  0  0  0  0
   -4.9138   30.4549   73.0113 H   0  0  0  0  0  0  0  0  0  0  0  0
   -3.8187   29.3289   74.9587 H   0  0  0  0  0  0  0  0  0  0  0  0
   -5.2610   28.3384   75.1987 H   0  0  0  0  0  0  0  0  0  0  0  0
   -6.6277   30.4070   75.5349 H   0  0  0  0  0  0  0  0  0  0  0  0
   -5.1870   31.3992   75.2919 H   0  0  0  0  0  0  0  0  0  0  0  0
   -4.0849   30.2751   77.2382 H   0  0  0  0  0  0  0  0  0  0  0  0
   -5.5260   29.2838   77.4816 H   0  0  0  0  0  0  0  0  0  0  0  0
   -6.8933   31.3527   77.8177 H   0  0  0  0  0  0  0  0  0  0  0  0
   -5.4532   32.3450   77.5724 H   0  0  0  0  0  0  0  0  0  0  0  0
   -4.3498   31.2253   79.5203 H   0  0  0  0  0  0  0  0  0  0  0  0
   -5.7897   30.2332   79.7658 H   0  0  0  0  0  0  0  0  0  0  0  0
   -7.1584   32.3029   80.1028 H   0  0  0  0  0  0  0  0  0  0  0  0
   -5.7182   33.2951   79.8571 H   0  0  0  0  0  0  0  0  0  0  0  0
   -4.6158   32.1755   81.8069 H   0  0  0  0  0  0  0  0  0  0  0  0
   -6.0565   31.1857   82.0528 H   0  0  0  0  0  0  0  0  0  0  0  0
   -7.4200   33.2589   82.4104 H   0  0  0  0  0  0  0  0  0  0  0  0
   -5.9788   34.2489   82.1644 H   0  0  0  0  0  0  0  0  0  0  0  0
   -6.3304   32.1526   84.3714 H   0  0  0  0  0  0  0  0  0  0  0  0
   -6.4169   33.9125   84.5801 H   0  0  0  0  0  0  0  0  0  0  0  0
   -4.8823   33.1474   84.1242 H   0  0  0  0  0  0  0  0  0  0  0  0
  1  2  1  0  0  0  0
  1 80  1  0  0  0  0
  1 81  1  0  0  0  0
  1 82  1  0  0  0  0
  2  3  1  0  0  0  0
  2  4  1  0  0  0  0
  2 83  1  0  0  0  0
  3  4  2  0  0  0  0
  3 84  1  0  0  0  0
  4  5  1  0  0  0  0
  5  6  1  0  0  0  0
  5 85  1  0  0  0  0
  5 86  1  0  0  0  0
  6  7  1  0  0  0  0
  7  8  1  0  0  0  0
  8  9  1  0  0  0  0
  9 10  1  0  0  0  0
 10 11  1  0  0  0  0
 11 12  1  0  0  0  0
 12 13  1  0  0  0  0
 13 14  1  0  0  0  0
 14 15  1  0  0  0  0
 15 16  1  0  0  0  0
 16 17  1  0  0  0  0
 17 18  1  0  0  0  0
 18 19  1  0  0  0  0
 19 20  1  0  0  0  0
 20 21  1  0  0  0  0
 21 22  1  0  0  0  0
 22 23  1  0  0  0  0
 23 24  1  0  0  0  0
 24 25  1  0  0  0  0
 25 26  1  0  0  0  0
 26 27  1  0  0  0  0
 27 28  1  0  0  0  0
 27 87  1  0  0  0  0
 27 88  1  0  0  0  0
 28 29  1  0  0  0  0
 28 89  1  0  0  0  0
 28 90  1  0  0  0  0
 29 30  1  0  0  0  0
 29 91  1  0  0  0  0
 29 92  1  0  0  0  0
 30 31  1  0  0  0  0
 30 93  1  0  0  0  0
 30 94  1  0  0  0  0
 31 32  1  0  0  0  0
 31 95  1  0  0  0  0
 31 96  1  0  0  0  0
 32 33  1  0  0  0  0
 32 97  1  0  0  0  0
 32 98  1  0  0  0  0
 33 34  1  0  0  0  0
 33 99  1  0  0  0  0
 33100  1  0  0  0  0
 34 35  1  0  0  0  0
 34101  1  0  0  0  0
 34102  1  0  0  0  0
 35 36  1  0  0  0  0
 35103  1  0  0  0  0
 35104  1  0  0  0  0
 36 37  1  0  0  0  0
 36105  1  0  0  0  0
 36106  1  0  0  0  0
 37 38  1  0  0  0  0
 37107  1  0  0  0  0
 37108  1  0  0  0  0
 38 39  1  0  0  0  0
 38109  1  0  0  0  0
 38110  1  0  0  0  0
 39 40  1  0  0  0  0
 39111  1  0  0  0  0
 39112  1  0  0  0  0
 40 41  1  0  0  0  0
 40113  1  0  0  0  0
 40114  1  0  0  0  0
 41 42  1  0  0  0  0
 41115  1  0  0  0  0
 41116  1  0  0  0  0
 42 43  1  0  0  0  0
 42117  1  0  0  0  0
 42118  1  0  0  0  0
 43 44  1  0  0  0  0
 43119  1  0  0  0  0
 43120  1  0  0  0  0
 44 45  1  0  0  0  0
 44121  1  0  0  0  0
 44122  1  0  0  0  0
 45 46  1  0  0  0  0
 45123  1  0  0  0  0
 45124  1  0  0  0  0
 46 47  1  0  0  0  0
 46125  1  0  0  0  0
 46126  1  0  0  0  0
 47 48  1  0  0  0  0
 47127  1  0  0  0  0
 47128  1  0  0  0  0
 48 49  1  0  0  0  0
 48129  1  0  0  0  0
 48130  1  0  0  0  0
 49 50  1  0  0  0  0
 49131  1  0  0  0  0
 49132  1  0  0  0  0
 50 51  1  0  0  0  0
 50133  1  0  0  0  0
 50134  1  0  0  0  0
 51 52  1  0  0  0  0
 51135  1  0  0  0  0
 51136  1  0  0  0  0
 52 53  1  0  0  0  0
 52137  1  0  0  0  0
 52138  1  0  0  0  0
 53 54  1  0  0  0  0
 53139  1  0  0  0  0
 53140  1  0  0  0  0
 54 55  1  0  0  0  0
 54141  1  0  0  0  0
 54142  1  0  0  0  0
 55 56  1  0  0  0  0
 55143  1  0  0  0  0
 55144  1  0  0  0  0
 56 57  1  0  0  0  0
 56145  1  0  0  0  0
 56146  1  0  0  0  0
 57 58  1  0  0  0  0
 57147  1  0  0  0  0
 57148  1  0  0  0  0
 58 59  1  0  0  0  0
 58149  1  0  0  0  0
 58150  1  0  0  0  0
 59 60  1  0  0  0  0
 59151  1  0  0  0  0
 59152  1  0  0  0  0
 60 61  1  0  0  0  0
 60153  1  0  0  0  0
 60154  1  0  0  0  0
 61 62  1  0  0  0  0
 61155  1  0  0  0  0
 61156  1  0  0  0  0
 62 63  1  0  0  0  0
 62157  1  0  0  0  0
 62158  1  0  0  0  0
 63 64  1  0  0  0  0
 63159  1  0  0  0  0
 63160  1  0  0  0  0
 64 65  1  0  0  0  0
 64161  1  0  0  0  0
 64162  1  0  0  0  0
 65 66  1  0  0  0  0
 65163  1  0  0  0  0
 65164  1  0  0  0  0
 66 67  1  0  0  0  0
 66165  1  0  0  0  0
 66166  1  0  0  0  0
 67 68  1  0  0  0  0
 67167  1  0  0  0  0
 67168  1  0  0  0  0
 68 69  1  0  0  0  0
 68169  1  0  0  0  0
 68170  1  0  0  0  0
 69 70  1  0  0  0  0
 69171  1  0  0  0  0
 69172  1  0  0  0  0
 70 71  1  0  0  0  0
 70173  1  0  0  0  0
 70174  1  0  0  0  0
 71 72  1  0  0  0  0
 71175  1  0  0  0  0
 71176  1  0  0  0  0
 72 73  1  0  0  0  0
 72177  1  0  0  0  0
 72178  1  0  0  0  0
 73 74  1  0  0  0  0
 73179  1  0  0  0  0
 73180  1  0  0  0  0
 74 75  1  0  0  0  0
 74181  1  0  0  0  0
 74182  1  0  0  0  0
 75 76  1  0  0  0  0
 75183  1  0  0  0  0
 75184  1  0  0  0  0
 76 77  1  0  0  0  0
 76185  1  0  0  0  0
 76186  1  0  0  0  0
 77 78  1  0  0  0  0
 77187  1  0  0  0  0
 77188  1  0  0  0  0
 78 79  1  0  0  0  0
 78189  1  0  0  0  0
 78190  1  0  0  0  0
 79191  1  0  0  0  0
 79192  1  0  0  0  0
 79193  1  0  0  0  0
M  END
$$$$
