
 OpenBabel04232217023D

150149  0  0  0  0  0  0  0  0999 V2000
   23.2636  -11.5179  -15.6656 S   0  0  0  0  0  0  0  0  0  0  0  0
   22.6249  -13.0319  -15.3280 N   0  0  0  0  0  0  0  0  0  0  0  0
   23.5064  -13.8076  -14.9451 N   0  0  0  0  0  0  0  0  0  0  0  0
   22.9470  -14.9908  -14.6231 N   0  0  0  0  0  0  0  0  0  0  0  0
   23.7766  -16.0542  -14.4188 N   0  0  0  0  0  0  0  0  0  0  0  0
   23.5815  -16.5545  -13.1181 N   0  0  0  0  0  0  0  0  0  0  0  0
   24.4926  -17.5835  -12.7934 N   0  0  0  0  0  0  0  0  0  0  0  0
   25.8463  -17.1338  -12.7563 N   0  0  0  0  0  0  0  0  0  0  0  0
   26.0251  -16.0489  -11.8368 N   0  0  0  0  0  0  0  0  0  0  0  0
   25.7561  -16.4770  -10.4892 N   0  0  0  0  0  0  0  0  0  0  0  0
   26.6309  -17.5536  -10.1180 N   0  0  0  0  0  0  0  0  0  0  0  0
   28.0044  -17.1281  -10.1800 N   0  0  0  0  0  0  0  0  0  0  0  0
   28.2217  -16.0191   -9.2875 N   0  0  0  0  0  0  0  0  0  0  0  0
   27.9108  -16.4118   -7.9361 N   0  0  0  0  0  0  0  0  0  0  0  0
   28.7463  -17.5176   -7.5448 N   0  0  0  0  0  0  0  0  0  0  0  0
   30.1323  -17.1315   -7.6326 N   0  0  0  0  0  0  0  0  0  0  0  0
   30.3736  -16.0028   -6.7686 N   0  0  0  0  0  0  0  0  0  0  0  0
   30.0446  -16.3593   -5.4105 N   0  0  0  0  0  0  0  0  0  0  0  0
   30.8533  -17.4813   -5.0012 N   0  0  0  0  0  0  0  0  0  0  0  0
   32.2479  -17.1259   -5.1007 N   0  0  0  0  0  0  0  0  0  0  0  0
   32.5100  -15.9849   -4.2575 N   0  0  0  0  0  0  0  0  0  0  0  0
   32.1708  -16.3132   -2.8939 N   0  0  0  0  0  0  0  0  0  0  0  0
   32.9573  -17.4456   -2.4680 N   0  0  0  0  0  0  0  0  0  0  0  0
   34.3586  -17.1174   -2.5740 N   0  0  0  0  0  0  0  0  0  0  0  0
   34.6406  -15.9676   -1.7486 N   0  0  0  0  0  0  0  0  0  0  0  0
   34.2945  -16.2693   -0.3802 N   0  0  0  0  0  0  0  0  0  0  0  0
   35.0605  -17.4096    0.0627 N   0  0  0  0  0  0  0  0  0  0  0  0
   36.4674  -17.1079   -0.0489 N   0  0  0  0  0  0  0  0  0  0  0  0
   36.7697  -15.9508    0.7592 N   0  0  0  0  0  0  0  0  0  0  0  0
   36.4190  -16.2258    2.1322 N   0  0  0  0  0  0  0  0  0  0  0  0
   37.1645  -17.3730    2.5917 N   0  0  0  0  0  0  0  0  0  0  0  0
   38.5766  -17.0980    2.4764 N   0  0  0  0  0  0  0  0  0  0  0  0
   38.8991  -15.9344    3.2673 N   0  0  0  0  0  0  0  0  0  0  0  0
   38.5424  -16.1828    4.6438 N   0  0  0  0  0  0  0  0  0  0  0  0
   39.2674  -17.3361    5.1208 N   0  0  0  0  0  0  0  0  0  0  0  0
   40.6844  -17.0881    5.0018 N   0  0  0  0  0  0  0  0  0  0  0  0
   41.0278  -15.9187    5.7753 N   0  0  0  0  0  0  0  0  0  0  0  0
   40.6668  -16.1400    7.1552 N   0  0  0  0  0  0  0  0  0  0  0  0
   41.3714  -17.2984    7.6503 N   0  0  0  0  0  0  0  0  0  0  0  0
   42.7926  -17.0775    7.5293 N   0  0  0  0  0  0  0  0  0  0  0  0
   43.1568  -15.9039    8.2860 N   0  0  0  0  0  0  0  0  0  0  0  0
   42.7912  -16.0974    9.6685 N   0  0  0  0  0  0  0  0  0  0  0  0
   43.4754  -17.2598   10.1824 N   0  0  0  0  0  0  0  0  0  0  0  0
   44.9002  -17.0658   10.0600 N   0  0  0  0  0  0  0  0  0  0  0  0
   45.2856  -15.8893   10.8016 N   0  0  0  0  0  0  0  0  0  0  0  0
   44.9174  -16.0563   12.1878 N   0  0  0  0  0  0  0  0  0  0  0  0
   45.5713  -17.2288   12.7149 N   0  0  0  0  0  0  0  0  0  0  0  0
   47.0017  -17.0719   12.5994 N   0  0  0  0  0  0  0  0  0  0  0  0
   47.4113  -15.8918   13.3212 N   0  0  0  0  0  0  0  0  0  0  0  0
   47.0353  -16.0250   14.7085 N   0  0  0  0  0  0  0  0  0  0  0  0
   47.6695  -17.1944   15.2667 N   0  0  0  0  0  0  0  0  0  0  0  0
   49.1016  -17.0694   15.1444 N   0  0  0  0  0  0  0  0  0  0  0  0
   49.5491  -15.8894   15.8443 N   0  0  0  0  0  0  0  0  0  0  0  0
   49.1782  -15.9824   17.2346 N   0  0  0  0  0  0  0  0  0  0  0  0
   49.7782  -17.1532   17.8220 N   0  0  0  0  0  0  0  0  0  0  0  0
   51.2163  -17.0796   17.7065 N   0  0  0  0  0  0  0  0  0  0  0  0
   51.7110  -15.9048   18.3774 N   0  0  0  0  0  0  0  0  0  0  0  0
   51.3466  -15.9384   19.7723 N   0  0  0  0  0  0  0  0  0  0  0  0
   51.8998  -17.1022   20.4108 N   0  0  0  0  0  0  0  0  0  0  0  0
   53.3424  -17.0947   20.3523 N   0  0  0  0  0  0  0  0  0  0  0  0
   53.8931  -15.9430   21.0268 N   0  0  0  0  0  0  0  0  0  0  0  0
   53.4804  -15.8995   22.4007 N   0  0  0  0  0  0  0  0  0  0  0  0
   54.0354  -16.9822   23.1166 N   0  0  0  0  0  0  0  0  0  0  0  0
   53.4885  -17.0442   24.6622 S   0  0  0  0  0  0  0  0  0  0  0  0
   54.2297  -18.3551   25.3438 N   0  0  0  0  0  0  0  0  0  0  0  0
   53.6772  -19.8156   24.7830 S   0  0  0  0  0  0  0  0  0  0  0  0
   54.1403  -19.9799   23.1959 N   0  0  0  0  0  0  0  0  0  0  0  0
   55.7763  -19.9141   22.9376 S   0  0  0  0  0  0  0  0  0  0  0  0
   56.4773  -21.1739   23.7439 N   0  0  0  0  0  0  0  0  0  0  0  0
   58.0975  -21.2749   23.4107 S   0  0  0  0  0  0  0  0  0  0  0  0
   58.8254  -19.9481   24.0710 N   0  0  0  0  0  0  0  0  0  0  0  0
   60.4323  -19.9201   23.6827 S   0  0  0  0  0  0  0  0  0  0  0  0
   61.0906  -18.5945   24.4238 N   0  0  0  0  0  0  0  0  0  0  0  0
   60.6746  -17.1526   23.7150 S   0  0  0  0  0  0  0  0  0  0  0  0
   59.0606  -16.8900   24.0012 N   0  0  0  0  0  0  0  0  0  0  0  0
   58.6621  -16.7921   25.6049 S   0  0  0  0  0  0  0  0  0  0  0  0
   59.3744  -15.4373   26.2230 N   0  0  0  0  0  0  0  0  0  0  0  0
   58.9170  -15.2592   27.8038 S   0  0  0  0  0  0  0  0  0  0  0  0
   59.7556  -13.9697   28.3931 N   0  0  0  0  0  0  0  0  0  0  0  0
   59.2709  -12.5424   27.7161 S   0  0  0  0  0  0  0  0  0  0  0  0
   22.1092  -10.8753  -15.8895 H   0  0  0  0  0  0  0  0  0  0  0  0
   22.0210  -15.1419  -15.0309 H   0  0  0  0  0  0  0  0  0  0  0  0
   24.7303  -15.6592  -14.4931 H   0  0  0  0  0  0  0  0  0  0  0  0
   22.6105  -16.8733  -13.0012 H   0  0  0  0  0  0  0  0  0  0  0  0
   24.3899  -18.3988  -13.4057 H   0  0  0  0  0  0  0  0  0  0  0  0
   26.1815  -16.8702  -13.6870 H   0  0  0  0  0  0  0  0  0  0  0  0
   25.3717  -15.2920  -12.0771 H   0  0  0  0  0  0  0  0  0  0  0  0
   24.7845  -16.8067  -10.4554 H   0  0  0  0  0  0  0  0  0  0  0  0
   26.4878  -18.3175  -10.7863 H   0  0  0  0  0  0  0  0  0  0  0  0
   28.1828  -16.8152  -11.1432 H   0  0  0  0  0  0  0  0  0  0  0  0
   27.5753  -15.2731   -9.5710 H   0  0  0  0  0  0  0  0  0  0  0  0
   26.9302  -16.7229   -7.9341 H   0  0  0  0  0  0  0  0  0  0  0  0
   28.5732  -18.2753   -8.2190 H   0  0  0  0  0  0  0  0  0  0  0  0
   30.2964  -16.8397   -8.6059 H   0  0  0  0  0  0  0  0  0  0  0  0
   29.7349  -15.2560   -7.0747 H   0  0  0  0  0  0  0  0  0  0  0  0
   29.0577  -16.6517   -5.4150 H   0  0  0  0  0  0  0  0  0  0  0  0
   30.6609  -18.2397   -5.6702 H   0  0  0  0  0  0  0  0  0  0  0  0
   32.4100  -16.8521   -6.0799 H   0  0  0  0  0  0  0  0  0  0  0  0
   31.8818  -15.2350   -4.5785 H   0  0  0  0  0  0  0  0  0  0  0  0
   31.1787  -16.5886   -2.8993 H   0  0  0  0  0  0  0  0  0  0  0  0
   32.7501  -18.2080   -3.1283 H   0  0  0  0  0  0  0  0  0  0  0  0
   34.5229  -16.8607   -3.5576 H   0  0  0  0  0  0  0  0  0  0  0  0
   34.0241  -15.2131   -2.0820 H   0  0  0  0  0  0  0  0  0  0  0  0
   33.2976  -16.5276   -0.3836 H   0  0  0  0  0  0  0  0  0  0  0  0
   34.8393  -18.1771   -0.5876 H   0  0  0  0  0  0  0  0  0  0  0  0
   36.6341  -16.8682   -1.0366 H   0  0  0  0  0  0  0  0  0  0  0  0
   36.1658  -15.1912    0.4144 H   0  0  0  0  0  0  0  0  0  0  0  0
   35.4176  -16.4663    2.1330 H   0  0  0  0  0  0  0  0  0  0  0  0
   36.9295  -18.1457    1.9527 H   0  0  0  0  0  0  0  0  0  0  0  0
   38.7481  -16.8763    1.4854 H   0  0  0  0  0  0  0  0  0  0  0  0
   38.3088  -15.1695    2.9106 H   0  0  0  0  0  0  0  0  0  0  0  0
   37.5369  -16.4060    4.6461 H   0  0  0  0  0  0  0  0  0  0  0  0
   39.0189  -18.1139    4.4930 H   0  0  0  0  0  0  0  0  0  0  0  0
   40.8596  -16.8841    4.0076 H   0  0  0  0  0  0  0  0  0  0  0  0
   40.4510  -15.1490    5.4070 H   0  0  0  0  0  0  0  0  0  0  0  0
   39.6576  -16.3455    7.1604 H   0  0  0  0  0  0  0  0  0  0  0  0
   41.1098  -18.0812    7.0342 H   0  0  0  0  0  0  0  0  0  0  0  0
   42.9725  -16.8910    6.5324 H   0  0  0  0  0  0  0  0  0  0  0  0
   42.5949  -15.1288    7.9065 H   0  0  0  0  0  0  0  0  0  0  0  0
   41.7782  -16.2858    9.6765 H   0  0  0  0  0  0  0  0  0  0  0  0
   43.2008  -18.0458    9.5784 H   0  0  0  0  0  0  0  0  0  0  0  0
   45.0835  -16.8949    9.0618 H   0  0  0  0  0  0  0  0  0  0  0  0
   44.7395  -15.1075   10.4111 H   0  0  0  0  0  0  0  0  0  0  0  0
   43.8998  -16.2201   12.1977 H   0  0  0  0  0  0  0  0  0  0  0  0
   45.2805  -18.0155   12.1175 H   0  0  0  0  0  0  0  0  0  0  0  0
   47.1974  -16.9247   11.5986 H   0  0  0  0  0  0  0  0  0  0  0  0
   46.8827  -15.1081   12.9153 H   0  0  0  0  0  0  0  0  0  0  0  0
   46.0169  -16.1703   14.7203 H   0  0  0  0  0  0  0  0  0  0  0  0
   47.3641  -17.9908   14.6894 H   0  0  0  0  0  0  0  0  0  0  0  0
   49.2917  -16.9391   14.1380 H   0  0  0  0  0  0  0  0  0  0  0  0
   49.0430  -15.0939   15.4287 H   0  0  0  0  0  0  0  0  0  0  0  0
   48.1555  -16.0975   17.2495 H   0  0  0  0  0  0  0  0  0  0  0  0
   49.4497  -17.9533   17.2640 H   0  0  0  0  0  0  0  0  0  0  0  0
   51.4215  -16.9892   16.7012 H   0  0  0  0  0  0  0  0  0  0  0  0
   51.2358  -15.1004   17.9412 H   0  0  0  0  0  0  0  0  0  0  0  0
   50.3201  -16.0212   19.7922 H   0  0  0  0  0  0  0  0  0  0  0  0
   51.5591  -17.9169   19.8903 H   0  0  0  0  0  0  0  0  0  0  0  0
   53.5936  -17.0452   19.3556 H   0  0  0  0  0  0  0  0  0  0  0  0
   53.4970  -15.1233   20.5485 H   0  0  0  0  0  0  0  0  0  0  0  0
   52.4575  -15.9894   22.4019 H   0  0  0  0  0  0  0  0  0  0  0  0
   55.0505  -17.0022   23.0289 H   0  0  0  0  0  0  0  0  0  0  0  0
   54.0768  -18.3228   26.3510 H   0  0  0  0  0  0  0  0  0  0  0  0
   53.7065  -19.2066   22.6744 H   0  0  0  0  0  0  0  0  0  0  0  0
   56.0169  -22.0375   23.4528 H   0  0  0  0  0  0  0  0  0  0  0  0
   58.6710  -19.8887   25.0781 H   0  0  0  0  0  0  0  0  0  0  0  0
   62.1079  -18.6677   24.3833 H   0  0  0  0  0  0  0  0  0  0  0  0
   58.5516  -17.6774   23.5854 H   0  0  0  0  0  0  0  0  0  0  0  0
   59.0864  -14.6204   25.6859 H   0  0  0  0  0  0  0  0  0  0  0  0
   60.7616  -14.1157   28.3134 H   0  0  0  0  0  0  0  0  0  0  0  0
   58.0299  -12.4873   28.2268 H   0  0  0  0  0  0  0  0  0  0  0  0
  1  2  1  0  0  0  0
  1 81  1  0  0  0  0
  2  3  2  3  0  0  0
  3  4  1  0  0  0  0
  4  5  1  0  0  0  0
  4 82  1  0  0  0  0
  5  6  1  0  0  0  0
  5 83  1  0  0  0  0
  6  7  1  0  0  0  0
  6 84  1  0  0  0  0
  7  8  1  0  0  0  0
  7 85  1  0  0  0  0
  8  9  1  0  0  0  0
  8 86  1  0  0  0  0
  9 10  1  0  0  0  0
  9 87  1  0  0  0  0
 10 11  1  0  0  0  0
 10 88  1  0  0  0  0
 11 12  1  0  0  0  0
 11 89  1  0  0  0  0
 12 13  1  0  0  0  0
 12 90  1  0  0  0  0
 13 14  1  0  0  0  0
 13 91  1  0  0  0  0
 14 15  1  0  0  0  0
 14 92  1  0  0  0  0
 15 16  1  0  0  0  0
 15 93  1  0  0  0  0
 16 17  1  0  0  0  0
 16 94  1  0  0  0  0
 17 18  1  0  0  0  0
 17 95  1  0  0  0  0
 18 19  1  0  0  0  0
 18 96  1  0  0  0  0
 19 20  1  0  0  0  0
 19 97  1  0  0  0  0
 20 21  1  0  0  0  0
 20 98  1  0  0  0  0
 21 22  1  0  0  0  0
 21 99  1  0  0  0  0
 22 23  1  0  0  0  0
 22100  1  0  0  0  0
 23 24  1  0  0  0  0
 23101  1  0  0  0  0
 24 25  1  0  0  0  0
 24102  1  0  0  0  0
 25 26  1  0  0  0  0
 25103  1  0  0  0  0
 26 27  1  0  0  0  0
 26104  1  0  0  0  0
 27 28  1  0  0  0  0
 27105  1  0  0  0  0
 28 29  1  0  0  0  0
 28106  1  0  0  0  0
 29 30  1  0  0  0  0
 29107  1  0  0  0  0
 30 31  1  0  0  0  0
 30108  1  0  0  0  0
 31 32  1  0  0  0  0
 31109  1  0  0  0  0
 32 33  1  0  0  0  0
 32110  1  0  0  0  0
 33 34  1  0  0  0  0
 33111  1  0  0  0  0
 34 35  1  0  0  0  0
 34112  1  0  0  0  0
 35 36  1  0  0  0  0
 35113  1  0  0  0  0
 36 37  1  0  0  0  0
 36114  1  0  0  0  0
 37 38  1  0  0  0  0
 37115  1  0  0  0  0
 38 39  1  0  0  0  0
 38116  1  0  0  0  0
 39 40  1  0  0  0  0
 39117  1  0  0  0  0
 40 41  1  0  0  0  0
 40118  1  0  0  0  0
 41 42  1  0  0  0  0
 41119  1  0  0  0  0
 42 43  1  0  0  0  0
 42120  1  0  0  0  0
 43 44  1  0  0  0  0
 43121  1  0  0  0  0
 44 45  1  0  0  0  0
 44122  1  0  0  0  0
 45 46  1  0  0  0  0
 45123  1  0  0  0  0
 46 47  1  0  0  0  0
 46124  1  0  0  0  0
 47 48  1  0  0  0  0
 47125  1  0  0  0  0
 48 49  1  0  0  0  0
 48126  1  0  0  0  0
 49 50  1  0  0  0  0
 49127  1  0  0  0  0
 50 51  1  0  0  0  0
 50128  1  0  0  0  0
 51 52  1  0  0  0  0
 51129  1  0  0  0  0
 52 53  1  0  0  0  0
 52130  1  0  0  0  0
 53 54  1  0  0  0  0
 53131  1  0  0  0  0
 54 55  1  0  0  0  0
 54132  1  0  0  0  0
 55 56  1  0  0  0  0
 55133  1  0  0  0  0
 56 57  1  0  0  0  0
 56134  1  0  0  0  0
 57 58  1  0  0  0  0
 57135  1  0  0  0  0
 58 59  1  0  0  0  0
 58136  1  0  0  0  0
 59 60  1  0  0  0  0
 59137  1  0  0  0  0
 60 61  1  0  0  0  0
 60138  1  0  0  0  0
 61 62  1  0  0  0  0
 61139  1  0  0  0  0
 62 63  1  0  0  0  0
 62140  1  0  0  0  0
 63 64  1  0  0  0  0
 63141  1  0  0  0  0
 64 65  1  0  0  0  0
 65 66  1  0  0  0  0
 65142  1  0  0  0  0
 66 67  1  0  0  0  0
 67 68  1  0  0  0  0
 67143  1  0  0  0  0
 68 69  1  0  0  0  0
 69 70  1  0  0  0  0
 69144  1  0  0  0  0
 70 71  1  0  0  0  0
 71 72  1  0  0  0  0
 71145  1  0  0  0  0
 72 73  1  0  0  0  0
 73 74  1  0  0  0  0
 73146  1  0  0  0  0
 74 75  1  0  0  0  0
 75 76  1  0  0  0  0
 75147  1  0  0  0  0
 76 77  1  0  0  0  0
 77 78  1  0  0  0  0
 77148  1  0  0  0  0
 78 79  1  0  0  0  0
 79 80  1  0  0  0  0
 79149  1  0  0  0  0
 80150  1  0  0  0  0
M  END
$$$$
