
 OpenBabel04232216483D

237237  0  0  1  0  0  0  0  0999 V2000
   -1.8031    0.1640   -0.3165 C   0  0  0  0  0  0  0  0  0  0  0  0
   -0.5647    0.0302    0.5637 C   0  0  3  0  0  0  0  0  0  0  0  0
    0.5420    1.0745    0.3009 C   0  0  0  0  0  0  0  0  0  0  0  0
    1.3489    0.0082   -0.4557 C   0  0  0  0  0  0  0  0  0  0  0  0
    0.4587   -1.0782    0.1769 C   0  0  3  0  0  0  0  0  0  0  0  0
   -0.0418   -2.1647   -0.7622 C   0  0  0  0  0  0  0  0  0  0  0  0
   -0.9039   -3.1427    0.0278 C   0  0  0  0  0  0  0  0  0  0  0  0
   -1.4381   -4.2222   -0.8918 C   0  0  0  0  0  0  0  0  0  0  0  0
   -2.2943   -5.1972   -0.1058 C   0  0  0  0  0  0  0  0  0  0  0  0
   -2.8165   -6.2763   -1.0342 C   0  0  0  0  0  0  0  0  0  0  0  0
   -3.6712   -7.2569   -0.2556 C   0  0  0  0  0  0  0  0  0  0  0  0
   -4.1899   -8.3365   -1.1857 C   0  0  0  0  0  0  0  0  0  0  0  0
   -5.0445   -9.3180   -0.4075 C   0  0  0  0  0  0  0  0  0  0  0  0
   -5.5633  -10.3979   -1.3372 C   0  0  0  0  0  0  0  0  0  0  0  0
   -6.4179  -11.3794   -0.5588 C   0  0  0  0  0  0  0  0  0  0  0  0
   -6.9369  -12.4595   -1.4883 C   0  0  0  0  0  0  0  0  0  0  0  0
   -7.7916  -13.4411   -0.7101 C   0  0  0  0  0  0  0  0  0  0  0  0
   -8.3121  -14.5200   -1.6398 C   0  0  0  0  0  0  0  0  0  0  0  0
   -9.1668  -15.5016   -0.8618 C   0  0  0  0  0  0  0  0  0  0  0  0
   -9.6875  -16.5806   -1.7915 C   0  0  0  0  0  0  0  0  0  0  0  0
  -10.5422  -17.5623   -1.0134 C   0  0  0  0  0  0  0  0  0  0  0  0
  -11.0629  -18.6413   -1.9431 C   0  0  0  0  0  0  0  0  0  0  0  0
  -11.9176  -19.6230   -1.1651 C   0  0  0  0  0  0  0  0  0  0  0  0
  -12.4382  -20.7020   -2.0948 C   0  0  0  0  0  0  0  0  0  0  0  0
  -13.2930  -21.6837   -1.3167 C   0  0  0  0  0  0  0  0  0  0  0  0
  -13.8136  -22.7627   -2.2464 C   0  0  0  0  0  0  0  0  0  0  0  0
  -14.6683  -23.7444   -1.4684 C   0  0  0  0  0  0  0  0  0  0  0  0
  -15.1873  -24.8245   -2.3977 C   0  0  0  0  0  0  0  0  0  0  0  0
  -16.0420  -25.8062   -1.6196 C   0  0  0  0  0  0  0  0  0  0  0  0
  -16.5626  -26.8852   -2.5493 C   0  0  0  0  0  0  0  0  0  0  0  0
  -17.4174  -27.8669   -1.7713 C   0  0  0  0  0  0  0  0  0  0  0  0
  -17.9364  -28.9470   -2.7006 C   0  0  0  0  0  0  0  0  0  0  0  0
  -18.7911  -29.9287   -1.9225 C   0  0  0  0  0  0  0  0  0  0  0  0
  -19.3085  -31.0099   -2.8514 C   0  0  0  0  0  0  0  0  0  0  0  0
  -20.1648  -31.9905   -2.0738 C   0  0  0  0  0  0  0  0  0  0  0  0
  -20.6838  -33.0706   -3.0031 C   0  0  0  0  0  0  0  0  0  0  0  0
  -21.5402  -34.0512   -2.2254 C   0  0  0  0  0  0  0  0  0  0  0  0
  -22.0592  -35.1313   -3.1547 C   0  0  0  0  0  0  0  0  0  0  0  0
  -22.9156  -36.1118   -2.3771 C   0  0  0  0  0  0  0  0  0  0  0  0
  -23.4346  -37.1919   -3.3064 C   0  0  0  0  0  0  0  0  0  0  0  0
  -24.2909  -38.1725   -2.5287 C   0  0  0  0  0  0  0  0  0  0  0  0
  -24.8083  -39.2537   -3.4577 C   0  0  0  0  0  0  0  0  0  0  0  0
  -25.6631  -40.2354   -2.6796 C   0  0  0  0  0  0  0  0  0  0  0  0
  -26.1820  -41.3156   -3.6089 C   0  0  0  0  0  0  0  0  0  0  0  0
  -27.0351  -42.2984   -2.8305 C   0  0  0  0  0  0  0  0  0  0  0  0
  -27.5525  -43.3796   -3.7594 C   0  0  0  0  0  0  0  0  0  0  0  0
  -28.4072  -44.3613   -2.9814 C   0  0  0  0  0  0  0  0  0  0  0  0
  -28.9262  -45.4414   -3.9107 C   0  0  0  0  0  0  0  0  0  0  0  0
  -29.7809  -46.4231   -3.1326 C   0  0  0  0  0  0  0  0  0  0  0  0
  -30.2999  -47.5032   -4.0619 C   0  0  0  0  0  0  0  0  0  0  0  0
  -31.1547  -48.4849   -3.2839 C   0  0  0  0  0  0  0  0  0  0  0  0
  -31.6753  -49.5639   -4.2136 C   0  0  0  0  0  0  0  0  0  0  0  0
  -32.5300  -50.5456   -3.4355 C   0  0  0  0  0  0  0  0  0  0  0  0
  -33.0491  -51.6257   -4.3649 C   0  0  0  0  0  0  0  0  0  0  0  0
  -33.9038  -52.6074   -3.5868 C   0  0  0  0  0  0  0  0  0  0  0  0
  -34.4243  -53.6864   -4.5165 C   0  0  0  0  0  0  0  0  0  0  0  0
  -35.2791  -54.6681   -3.7385 C   0  0  0  0  0  0  0  0  0  0  0  0
  -35.7981  -55.7482   -4.6678 C   0  0  0  0  0  0  0  0  0  0  0  0
  -36.6545  -56.7288   -3.8901 C   0  0  0  0  0  0  0  0  0  0  0  0
  -37.1719  -57.8100   -4.8190 C   0  0  0  0  0  0  0  0  0  0  0  0
  -38.0298  -58.7895   -4.0418 C   0  0  0  0  0  0  0  0  0  0  0  0
  -38.5456  -59.8718   -4.9703 C   0  0  0  0  0  0  0  0  0  0  0  0
  -39.4019  -60.8524   -4.1926 C   0  0  0  0  0  0  0  0  0  0  0  0
  -39.9161  -61.9358   -5.1208 C   0  0  0  0  0  0  0  0  0  0  0  0
  -40.7708  -62.9175   -4.3427 C   0  0  0  0  0  0  0  0  0  0  0  0
  -41.2865  -63.9999   -5.2712 C   0  0  0  0  0  0  0  0  0  0  0  0
  -42.1412  -64.9816   -4.4932 C   0  0  0  0  0  0  0  0  0  0  0  0
  -42.6554  -66.0650   -5.4214 C   0  0  0  0  0  0  0  0  0  0  0  0
  -43.5117  -67.0457   -4.6435 C   0  0  0  0  0  0  0  0  0  0  0  0
  -44.0243  -68.1304   -5.5715 C   0  0  0  0  0  0  0  0  0  0  0  0
  -44.8791  -69.1122   -4.7932 C   0  0  0  0  0  0  0  0  0  0  0  0
  -45.3934  -70.1961   -5.7215 C   0  0  0  0  0  0  0  0  0  0  0  0
  -46.2488  -71.1786   -4.9433 C   0  0  0  0  0  0  0  0  0  0  0  0
  -46.7648  -72.2616   -5.8722 C   0  0  0  0  0  0  0  0  0  0  0  0
  -47.6223  -73.2442   -5.0957 C   0  0  0  0  0  0  0  0  0  0  0  0
  -48.1394  -74.3285   -6.0242 C   0  0  0  0  0  0  0  0  0  0  0  0
  -48.9981  -75.3138   -5.2502 C   0  0  0  0  0  0  0  0  0  0  0  0
  -49.5151  -76.3980   -6.1677 C   0  0  0  0  0  0  0  0  0  0  0  0
  -50.3751  -77.3887   -5.4041 C   0  0  0  0  0  0  0  0  0  0  0  0
   -2.4443    0.9787    0.0232 H   0  0  0  0  0  0  0  0  0  0  0  0
   -2.4062   -0.7488   -0.2863 H   0  0  0  0  0  0  0  0  0  0  0  0
   -1.5314    0.3471   -1.3613 H   0  0  0  0  0  0  0  0  0  0  0  0
   -0.8617   -0.0228    1.6205 H   0  0  0  0  0  0  0  0  0  0  0  0
    1.0405    1.4328    1.2100 H   0  0  0  0  0  0  0  0  0  0  0  0
    0.2439    1.9407   -0.2962 H   0  0  0  0  0  0  0  0  0  0  0  0
    2.4054   -0.0520   -0.1755 H   0  0  0  0  0  0  0  0  0  0  0  0
    1.2784    0.0785   -1.5461 H   0  0  0  0  0  0  0  0  0  0  0  0
    0.9533   -1.5215    1.0545 H   0  0  0  0  0  0  0  0  0  0  0  0
    0.7955   -2.6922   -1.2240 H   0  0  0  0  0  0  0  0  0  0  0  0
   -0.6241   -1.7404   -1.5929 H   0  0  0  0  0  0  0  0  0  0  0  0
   -1.7429   -2.6331    0.5170 H   0  0  0  0  0  0  0  0  0  0  0  0
   -0.3120   -3.5893    0.8354 H   0  0  0  0  0  0  0  0  0  0  0  0
   -0.6018   -4.7521   -1.3612 H   0  0  0  0  0  0  0  0  0  0  0  0
   -2.0330   -3.7708   -1.6959 H   0  0  0  0  0  0  0  0  0  0  0  0
   -3.1335   -4.6697    0.3645 H   0  0  0  0  0  0  0  0  0  0  0  0
   -1.7030   -5.6493    0.6999 H   0  0  0  0  0  0  0  0  0  0  0  0
   -1.9766   -6.8028   -1.5040 H   0  0  0  0  0  0  0  0  0  0  0  0
   -3.4071   -5.8231   -1.8401 H   0  0  0  0  0  0  0  0  0  0  0  0
   -4.5120   -6.7307    0.2130 H   0  0  0  0  0  0  0  0  0  0  0  0
   -3.0809   -7.7093    0.5508 H   0  0  0  0  0  0  0  0  0  0  0  0
   -3.3488   -8.8622   -1.6545 H   0  0  0  0  0  0  0  0  0  0  0  0
   -4.7799   -7.8838   -1.9922 H   0  0  0  0  0  0  0  0  0  0  0  0
   -5.8854   -8.7920    0.0612 H   0  0  0  0  0  0  0  0  0  0  0  0
   -4.4542   -9.7703    0.3990 H   0  0  0  0  0  0  0  0  0  0  0  0
   -4.7223  -10.9237   -1.8059 H   0  0  0  0  0  0  0  0  0  0  0  0
   -6.1534   -9.9454   -2.1437 H   0  0  0  0  0  0  0  0  0  0  0  0
   -7.2588  -10.8534   -0.0900 H   0  0  0  0  0  0  0  0  0  0  0  0
   -5.8277  -11.8317    0.2478 H   0  0  0  0  0  0  0  0  0  0  0  0
   -6.0959  -12.9853   -1.9572 H   0  0  0  0  0  0  0  0  0  0  0  0
   -7.5269  -12.0070   -2.2949 H   0  0  0  0  0  0  0  0  0  0  0  0
   -8.6317  -12.9149   -0.2400 H   0  0  0  0  0  0  0  0  0  0  0  0
   -7.2010  -13.8944    0.0957 H   0  0  0  0  0  0  0  0  0  0  0  0
   -7.4720  -15.0461   -2.1100 H   0  0  0  0  0  0  0  0  0  0  0  0
   -8.9027  -14.0666   -2.4457 H   0  0  0  0  0  0  0  0  0  0  0  0
  -10.0070  -14.9755   -0.3916 H   0  0  0  0  0  0  0  0  0  0  0  0
   -8.5764  -15.9551   -0.0559 H   0  0  0  0  0  0  0  0  0  0  0  0
   -8.8474  -17.1068   -2.2617 H   0  0  0  0  0  0  0  0  0  0  0  0
  -10.2780  -16.1272   -2.5973 H   0  0  0  0  0  0  0  0  0  0  0  0
  -11.3823  -17.0362   -0.5432 H   0  0  0  0  0  0  0  0  0  0  0  0
   -9.9517  -18.0158   -0.2076 H   0  0  0  0  0  0  0  0  0  0  0  0
  -10.2227  -19.1674   -2.4133 H   0  0  0  0  0  0  0  0  0  0  0  0
  -11.6534  -18.1879   -2.7490 H   0  0  0  0  0  0  0  0  0  0  0  0
  -12.7577  -19.0969   -0.6949 H   0  0  0  0  0  0  0  0  0  0  0  0
  -11.3271  -20.0764   -0.3592 H   0  0  0  0  0  0  0  0  0  0  0  0
  -11.5981  -21.2281   -2.5650 H   0  0  0  0  0  0  0  0  0  0  0  0
  -13.0287  -20.2486   -2.9006 H   0  0  0  0  0  0  0  0  0  0  0  0
  -14.1331  -21.1576   -0.8466 H   0  0  0  0  0  0  0  0  0  0  0  0
  -12.7024  -22.1371   -0.5108 H   0  0  0  0  0  0  0  0  0  0  0  0
  -12.9734  -23.2887   -2.7165 H   0  0  0  0  0  0  0  0  0  0  0  0
  -14.4041  -22.3093   -3.0523 H   0  0  0  0  0  0  0  0  0  0  0  0
  -15.5092  -23.2184   -0.9993 H   0  0  0  0  0  0  0  0  0  0  0  0
  -14.0782  -24.1968   -0.6617 H   0  0  0  0  0  0  0  0  0  0  0  0
  -14.3464  -25.3505   -2.8667 H   0  0  0  0  0  0  0  0  0  0  0  0
  -15.7774  -24.3720   -3.2044 H   0  0  0  0  0  0  0  0  0  0  0  0
  -16.8822  -25.2802   -1.1495 H   0  0  0  0  0  0  0  0  0  0  0  0
  -15.4515  -26.2595   -0.8137 H   0  0  0  0  0  0  0  0  0  0  0  0
  -15.7225  -27.4112   -3.0194 H   0  0  0  0  0  0  0  0  0  0  0  0
  -17.1532  -26.4318   -3.3552 H   0  0  0  0  0  0  0  0  0  0  0  0
  -18.2583  -27.3409   -1.3022 H   0  0  0  0  0  0  0  0  0  0  0  0
  -16.8273  -28.3193   -0.9645 H   0  0  0  0  0  0  0  0  0  0  0  0
  -17.0954  -29.4728   -3.1695 H   0  0  0  0  0  0  0  0  0  0  0  0
  -18.5265  -28.4947   -3.5074 H   0  0  0  0  0  0  0  0  0  0  0  0
  -19.6328  -29.4029   -1.4547 H   0  0  0  0  0  0  0  0  0  0  0  0
  -18.2015  -30.3801   -1.1149 H   0  0  0  0  0  0  0  0  0  0  0  0
  -18.4667  -31.5365   -3.3182 H   0  0  0  0  0  0  0  0  0  0  0  0
  -19.8970  -30.5585   -3.6598 H   0  0  0  0  0  0  0  0  0  0  0  0
  -21.0059  -31.4637   -1.6059 H   0  0  0  0  0  0  0  0  0  0  0  0
  -19.5759  -32.4429   -1.2662 H   0  0  0  0  0  0  0  0  0  0  0  0
  -19.8429  -33.5974   -3.4710 H   0  0  0  0  0  0  0  0  0  0  0  0
  -21.2728  -32.6181   -3.8107 H   0  0  0  0  0  0  0  0  0  0  0  0
  -22.3812  -33.5243   -1.7575 H   0  0  0  0  0  0  0  0  0  0  0  0
  -20.9513  -34.5037   -1.4179 H   0  0  0  0  0  0  0  0  0  0  0  0
  -21.2183  -35.6581   -3.6227 H   0  0  0  0  0  0  0  0  0  0  0  0
  -22.6481  -34.6788   -3.9623 H   0  0  0  0  0  0  0  0  0  0  0  0
  -23.7565  -35.5850   -1.9092 H   0  0  0  0  0  0  0  0  0  0  0  0
  -22.3267  -36.5643   -1.5695 H   0  0  0  0  0  0  0  0  0  0  0  0
  -22.5935  -37.7187   -3.7743 H   0  0  0  0  0  0  0  0  0  0  0  0
  -24.0235  -36.7396   -4.1140 H   0  0  0  0  0  0  0  0  0  0  0  0
  -25.1327  -37.6459   -2.0620 H   0  0  0  0  0  0  0  0  0  0  0  0
  -23.7024  -38.6240   -1.7203 H   0  0  0  0  0  0  0  0  0  0  0  0
  -23.9666  -39.7795   -3.9255 H   0  0  0  0  0  0  0  0  0  0  0  0
  -25.3979  -38.8023   -4.2653 H   0  0  0  0  0  0  0  0  0  0  0  0
  -26.5041  -39.7097   -2.2107 H   0  0  0  0  0  0  0  0  0  0  0  0
  -25.0728  -40.6877   -1.8728 H   0  0  0  0  0  0  0  0  0  0  0  0
  -25.3411  -41.8405   -4.0789 H   0  0  0  0  0  0  0  0  0  0  0  0
  -26.7733  -40.8634   -4.4149 H   0  0  0  0  0  0  0  0  0  0  0  0
  -27.8768  -41.7735   -2.3616 H   0  0  0  0  0  0  0  0  0  0  0  0
  -26.4443  -42.7497   -2.0237 H   0  0  0  0  0  0  0  0  0  0  0  0
  -26.7108  -43.9053   -4.2273 H   0  0  0  0  0  0  0  0  0  0  0  0
  -28.1422  -42.9283   -4.5670 H   0  0  0  0  0  0  0  0  0  0  0  0
  -29.2482  -43.8355   -2.5124 H   0  0  0  0  0  0  0  0  0  0  0  0
  -27.8170  -44.8136   -2.1746 H   0  0  0  0  0  0  0  0  0  0  0  0
  -28.0853  -45.9673   -4.3797 H   0  0  0  0  0  0  0  0  0  0  0  0
  -29.5163  -44.9891   -4.7175 H   0  0  0  0  0  0  0  0  0  0  0  0
  -30.6219  -45.8972   -2.6636 H   0  0  0  0  0  0  0  0  0  0  0  0
  -29.1909  -46.8755   -2.3259 H   0  0  0  0  0  0  0  0  0  0  0  0
  -29.4591  -48.0292   -4.5310 H   0  0  0  0  0  0  0  0  0  0  0  0
  -30.8900  -47.0508   -4.8686 H   0  0  0  0  0  0  0  0  0  0  0  0
  -31.9949  -47.9589   -2.8138 H   0  0  0  0  0  0  0  0  0  0  0  0
  -30.5641  -48.9383   -2.4780 H   0  0  0  0  0  0  0  0  0  0  0  0
  -30.8351  -50.0899   -4.6837 H   0  0  0  0  0  0  0  0  0  0  0  0
  -32.2659  -49.1106   -5.0195 H   0  0  0  0  0  0  0  0  0  0  0  0
  -33.3709  -50.0196   -2.9665 H   0  0  0  0  0  0  0  0  0  0  0  0
  -31.9400  -50.9981   -2.6289 H   0  0  0  0  0  0  0  0  0  0  0  0
  -32.2081  -52.1517   -4.8339 H   0  0  0  0  0  0  0  0  0  0  0  0
  -33.6391  -51.1732   -5.1715 H   0  0  0  0  0  0  0  0  0  0  0  0
  -34.7440  -52.0814   -3.1167 H   0  0  0  0  0  0  0  0  0  0  0  0
  -33.3132  -53.0608   -2.7809 H   0  0  0  0  0  0  0  0  0  0  0  0
  -33.5842  -54.2124   -4.9866 H   0  0  0  0  0  0  0  0  0  0  0  0
  -35.0149  -53.2330   -5.3224 H   0  0  0  0  0  0  0  0  0  0  0  0
  -36.1200  -54.1421   -3.2695 H   0  0  0  0  0  0  0  0  0  0  0  0
  -34.6891  -55.1206   -2.9317 H   0  0  0  0  0  0  0  0  0  0  0  0
  -34.9571  -56.2750   -5.1357 H   0  0  0  0  0  0  0  0  0  0  0  0
  -36.3871  -55.2958   -5.4753 H   0  0  0  0  0  0  0  0  0  0  0  0
  -37.4962  -56.2021   -3.4234 H   0  0  0  0  0  0  0  0  0  0  0  0
  -36.0660  -57.1803   -3.0816 H   0  0  0  0  0  0  0  0  0  0  0  0
  -36.3300  -58.3375   -5.2846 H   0  0  0  0  0  0  0  0  0  0  0  0
  -37.7592  -57.3587   -5.6283 H   0  0  0  0  0  0  0  0  0  0  0  0
  -38.8724  -58.2622   -3.5773 H   0  0  0  0  0  0  0  0  0  0  0  0
  -37.4429  -59.2399   -3.2316 H   0  0  0  0  0  0  0  0  0  0  0  0
  -37.7030  -60.3982   -5.4358 H   0  0  0  0  0  0  0  0  0  0  0  0
  -39.1336  -59.4215   -5.7797 H   0  0  0  0  0  0  0  0  0  0  0  0
  -40.2453  -60.3263   -3.7282 H   0  0  0  0  0  0  0  0  0  0  0  0
  -38.8142  -61.3017   -3.3824 H   0  0  0  0  0  0  0  0  0  0  0  0
  -39.0727  -62.4612   -5.5862 H   0  0  0  0  0  0  0  0  0  0  0  0
  -40.5048  -61.4865   -5.9302 H   0  0  0  0  0  0  0  0  0  0  0  0
  -41.6134  -62.3923   -3.8762 H   0  0  0  0  0  0  0  0  0  0  0  0
  -40.1814  -63.3677   -3.5341 H   0  0  0  0  0  0  0  0  0  0  0  0
  -40.4439  -64.5253   -5.7378 H   0  0  0  0  0  0  0  0  0  0  0  0
  -41.8758  -63.5498   -6.0798 H   0  0  0  0  0  0  0  0  0  0  0  0
  -42.9845  -64.4563   -4.0278 H   0  0  0  0  0  0  0  0  0  0  0  0
  -41.5524  -65.4309   -3.6837 H   0  0  0  0  0  0  0  0  0  0  0  0
  -41.8119  -66.5911   -5.8856 H   0  0  0  0  0  0  0  0  0  0  0  0
  -43.2431  -65.6159   -6.2315 H   0  0  0  0  0  0  0  0  0  0  0  0
  -44.3559  -66.5198   -4.1805 H   0  0  0  0  0  0  0  0  0  0  0  0
  -42.9244  -67.4939   -3.8326 H   0  0  0  0  0  0  0  0  0  0  0  0
  -43.1801  -68.6553   -6.0355 H   0  0  0  0  0  0  0  0  0  0  0  0
  -44.6127  -67.6821   -6.3817 H   0  0  0  0  0  0  0  0  0  0  0  0
  -45.7224  -68.5869   -4.3280 H   0  0  0  0  0  0  0  0  0  0  0  0
  -44.2901  -69.5612   -3.9839 H   0  0  0  0  0  0  0  0  0  0  0  0
  -44.5500  -70.7211   -6.1867 H   0  0  0  0  0  0  0  0  0  0  0  0
  -45.9822  -69.7466   -6.5307 H   0  0  0  0  0  0  0  0  0  0  0  0
  -47.0909  -70.6526   -4.4770 H   0  0  0  0  0  0  0  0  0  0  0  0
  -45.6591  -71.6282   -4.1350 H   0  0  0  0  0  0  0  0  0  0  0  0
  -45.9218  -72.7872   -6.3375 H   0  0  0  0  0  0  0  0  0  0  0  0
  -47.3526  -71.8106   -6.6813 H   0  0  0  0  0  0  0  0  0  0  0  0
  -48.4644  -72.7176   -4.6305 H   0  0  0  0  0  0  0  0  0  0  0  0
  -47.0341  -73.6940   -4.2868 H   0  0  0  0  0  0  0  0  0  0  0  0
  -47.2964  -74.8547   -6.4896 H   0  0  0  0  0  0  0  0  0  0  0  0
  -48.7275  -73.8778   -6.8336 H   0  0  0  0  0  0  0  0  0  0  0  0
  -49.8410  -74.7850   -4.7830 H   0  0  0  0  0  0  0  0  0  0  0  0
  -48.4091  -75.7611   -4.4369 H   0  0  0  0  0  0  0  0  0  0  0  0
  -48.6817  -76.9377   -6.6348 H   0  0  0  0  0  0  0  0  0  0  0  0
  -50.1112  -75.9634   -6.9804 H   0  0  0  0  0  0  0  0  0  0  0  0
  -49.7968  -77.8625   -4.5947 H   0  0  0  0  0  0  0  0  0  0  0  0
  -50.7486  -78.1675   -6.0551 H   0  0  0  0  0  0  0  0  0  0  0  0
  -51.2373  -76.8806   -4.9429 H   0  0  0  0  0  0  0  0  0  0  0  0
  1  2  1  0  0  0  0
  1 80  1  0  0  0  0
  1 81  1  0  0  0  0
  1 82  1  0  0  0  0
  2  3  1  0  0  0  0
  2  5  1  0  0  0  0
  2 83  1  0  0  0  0
  3  4  1  0  0  0  0
  3 84  1  0  0  0  0
  3 85  1  0  0  0  0
  4  5  1  0  0  0  0
  4 86  1  0  0  0  0
  4 87  1  0  0  0  0
  5  6  1  0  0  0  0
  5 88  1  0  0  0  0
  6  7  1  0  0  0  0
  6 89  1  0  0  0  0
  6 90  1  0  0  0  0
  7  8  1  0  0  0  0
  7 91  1  0  0  0  0
  7 92  1  0  0  0  0
  8  9  1  0  0  0  0
  8 93  1  0  0  0  0
  8 94  1  0  0  0  0
  9 10  1  0  0  0  0
  9 95  1  0  0  0  0
  9 96  1  0  0  0  0
 10 11  1  0  0  0  0
 10 97  1  0  0  0  0
 10 98  1  0  0  0  0
 11 12  1  0  0  0  0
 11 99  1  0  0  0  0
 11100  1  0  0  0  0
 12 13  1  0  0  0  0
 12101  1  0  0  0  0
 12102  1  0  0  0  0
 13 14  1  0  0  0  0
 13103  1  0  0  0  0
 13104  1  0  0  0  0
 14 15  1  0  0  0  0
 14105  1  0  0  0  0
 14106  1  0  0  0  0
 15 16  1  0  0  0  0
 15107  1  0  0  0  0
 15108  1  0  0  0  0
 16 17  1  0  0  0  0
 16109  1  0  0  0  0
 16110  1  0  0  0  0
 17 18  1  0  0  0  0
 17111  1  0  0  0  0
 17112  1  0  0  0  0
 18 19  1  0  0  0  0
 18113  1  0  0  0  0
 18114  1  0  0  0  0
 19 20  1  0  0  0  0
 19115  1  0  0  0  0
 19116  1  0  0  0  0
 20 21  1  0  0  0  0
 20117  1  0  0  0  0
 20118  1  0  0  0  0
 21 22  1  0  0  0  0
 21119  1  0  0  0  0
 21120  1  0  0  0  0
 22 23  1  0  0  0  0
 22121  1  0  0  0  0
 22122  1  0  0  0  0
 23 24  1  0  0  0  0
 23123  1  0  0  0  0
 23124  1  0  0  0  0
 24 25  1  0  0  0  0
 24125  1  0  0  0  0
 24126  1  0  0  0  0
 25 26  1  0  0  0  0
 25127  1  0  0  0  0
 25128  1  0  0  0  0
 26 27  1  0  0  0  0
 26129  1  0  0  0  0
 26130  1  0  0  0  0
 27 28  1  0  0  0  0
 27131  1  0  0  0  0
 27132  1  0  0  0  0
 28 29  1  0  0  0  0
 28133  1  0  0  0  0
 28134  1  0  0  0  0
 29 30  1  0  0  0  0
 29135  1  0  0  0  0
 29136  1  0  0  0  0
 30 31  1  0  0  0  0
 30137  1  0  0  0  0
 30138  1  0  0  0  0
 31 32  1  0  0  0  0
 31139  1  0  0  0  0
 31140  1  0  0  0  0
 32 33  1  0  0  0  0
 32141  1  0  0  0  0
 32142  1  0  0  0  0
 33 34  1  0  0  0  0
 33143  1  0  0  0  0
 33144  1  0  0  0  0
 34 35  1  0  0  0  0
 34145  1  0  0  0  0
 34146  1  0  0  0  0
 35 36  1  0  0  0  0
 35147  1  0  0  0  0
 35148  1  0  0  0  0
 36 37  1  0  0  0  0
 36149  1  0  0  0  0
 36150  1  0  0  0  0
 37 38  1  0  0  0  0
 37151  1  0  0  0  0
 37152  1  0  0  0  0
 38 39  1  0  0  0  0
 38153  1  0  0  0  0
 38154  1  0  0  0  0
 39 40  1  0  0  0  0
 39155  1  0  0  0  0
 39156  1  0  0  0  0
 40 41  1  0  0  0  0
 40157  1  0  0  0  0
 40158  1  0  0  0  0
 41 42  1  0  0  0  0
 41159  1  0  0  0  0
 41160  1  0  0  0  0
 42 43  1  0  0  0  0
 42161  1  0  0  0  0
 42162  1  0  0  0  0
 43 44  1  0  0  0  0
 43163  1  0  0  0  0
 43164  1  0  0  0  0
 44 45  1  0  0  0  0
 44165  1  0  0  0  0
 44166  1  0  0  0  0
 45 46  1  0  0  0  0
 45167  1  0  0  0  0
 45168  1  0  0  0  0
 46 47  1  0  0  0  0
 46169  1  0  0  0  0
 46170  1  0  0  0  0
 47 48  1  0  0  0  0
 47171  1  0  0  0  0
 47172  1  0  0  0  0
 48 49  1  0  0  0  0
 48173  1  0  0  0  0
 48174  1  0  0  0  0
 49 50  1  0  0  0  0
 49175  1  0  0  0  0
 49176  1  0  0  0  0
 50 51  1  0  0  0  0
 50177  1  0  0  0  0
 50178  1  0  0  0  0
 51 52  1  0  0  0  0
 51179  1  0  0  0  0
 51180  1  0  0  0  0
 52 53  1  0  0  0  0
 52181  1  0  0  0  0
 52182  1  0  0  0  0
 53 54  1  0  0  0  0
 53183  1  0  0  0  0
 53184  1  0  0  0  0
 54 55  1  0  0  0  0
 54185  1  0  0  0  0
 54186  1  0  0  0  0
 55 56  1  0  0  0  0
 55187  1  0  0  0  0
 55188  1  0  0  0  0
 56 57  1  0  0  0  0
 56189  1  0  0  0  0
 56190  1  0  0  0  0
 57 58  1  0  0  0  0
 57191  1  0  0  0  0
 57192  1  0  0  0  0
 58 59  1  0  0  0  0
 58193  1  0  0  0  0
 58194  1  0  0  0  0
 59 60  1  0  0  0  0
 59195  1  0  0  0  0
 59196  1  0  0  0  0
 60 61  1  0  0  0  0
 60197  1  0  0  0  0
 60198  1  0  0  0  0
 61 62  1  0  0  0  0
 61199  1  0  0  0  0
 61200  1  0  0  0  0
 62 63  1  0  0  0  0
 62201  1  0  0  0  0
 62202  1  0  0  0  0
 63 64  1  0  0  0  0
 63203  1  0  0  0  0
 63204  1  0  0  0  0
 64 65  1  0  0  0  0
 64205  1  0  0  0  0
 64206  1  0  0  0  0
 65 66  1  0  0  0  0
 65207  1  0  0  0  0
 65208  1  0  0  0  0
 66 67  1  0  0  0  0
 66209  1  0  0  0  0
 66210  1  0  0  0  0
 67 68  1  0  0  0  0
 67211  1  0  0  0  0
 67212  1  0  0  0  0
 68 69  1  0  0  0  0
 68213  1  0  0  0  0
 68214  1  0  0  0  0
 69 70  1  0  0  0  0
 69215  1  0  0  0  0
 69216  1  0  0  0  0
 70 71  1  0  0  0  0
 70217  1  0  0  0  0
 70218  1  0  0  0  0
 71 72  1  0  0  0  0
 71219  1  0  0  0  0
 71220  1  0  0  0  0
 72 73  1  0  0  0  0
 72221  1  0  0  0  0
 72222  1  0  0  0  0
 73 74  1  0  0  0  0
 73223  1  0  0  0  0
 73224  1  0  0  0  0
 74 75  1  0  0  0  0
 74225  1  0  0  0  0
 74226  1  0  0  0  0
 75 76  1  0  0  0  0
 75227  1  0  0  0  0
 75228  1  0  0  0  0
 76 77  1  0  0  0  0
 76229  1  0  0  0  0
 76230  1  0  0  0  0
 77 78  1  0  0  0  0
 77231  1  0  0  0  0
 77232  1  0  0  0  0
 78 79  1  0  0  0  0
 78233  1  0  0  0  0
 78234  1  0  0  0  0
 79235  1  0  0  0  0
 79236  1  0  0  0  0
 79237  1  0  0  0  0
M  END
$$$$
