
 OpenBabel04232216393D

 69 69  0  0  0  0  0  0  0  0999 V2000
   12.7170    2.9608    7.5860 C   0  0  0  0  0  0  0  0  0  0  0  0
   14.1749    2.2339    7.5878 C   0  0  0  0  0  0  0  0  0  0  0  0
   12.7429    1.7895    5.9353 C   0  0  0  0  0  0  0  0  0  0  0  0
   11.1289    1.6347    5.0368 C   0  0  0  0  0  0  0  0  0  0  0  0
    9.2940    1.0448    4.4970 C   0  0  0  0  0  0  0  0  0  0  0  0
    8.4293    0.1277    3.6068 C   0  0  0  0  0  0  0  0  0  0  0  0
    7.9394   -0.9283    4.6131 C   0  0  0  0  0  0  0  0  0  0  0  0
    9.1313   -1.4502    4.9401 C   0  0  0  0  0  0  0  0  0  0  0  0
    9.9788   -1.0057    6.0355 C   0  0  0  0  0  0  0  0  0  0  0  0
   11.2659   -1.0251    5.5936 C   0  0  0  0  0  0  0  0  0  0  0  0
   12.4616   -0.7720    6.2606 C   0  0  0  0  0  0  0  0  0  0  0  0
   13.7381   -0.4780    5.9439 C   0  0  0  0  0  0  0  0  0  0  0  0
   14.3573   -0.5802    7.1981 C   0  0  0  0  0  0  0  0  0  0  0  0
   15.6290   -0.4769    7.4296 C   0  0  0  0  0  0  0  0  0  0  0  0
   15.9865   -0.5602    8.7843 C   0  0  0  0  0  0  0  0  0  0  0  0
   17.2526   -0.2789    8.9896 C   0  0  0  0  0  0  0  0  0  0  0  0
   17.6594   -0.4139   10.3291 C   0  0  0  0  0  0  0  0  0  0  0  0
   18.9562   -0.5927   10.6004 C   0  0  0  0  0  0  0  0  0  0  0  0
   19.3086   -0.4220   12.0317 C   0  0  0  0  0  0  0  0  0  0  0  0
   20.5387   -0.5395   12.6070 C   0  0  0  0  0  0  0  0  0  0  0  0
   20.9806    0.1768   14.0082 C   0  0  0  0  0  0  0  0  0  0  0  0
   22.1318    0.1152   14.7652 C   0  0  0  0  0  0  0  0  0  0  0  0
   22.7690    0.9526   15.9034 C   0  0  0  0  0  0  0  0  0  0  0  0
   24.1330    0.8709   16.0944 C   0  0  0  0  0  0  0  0  0  0  0  0
   25.2913    2.1248   16.0669 C   0  0  0  0  0  0  0  0  0  0  0  0
   26.4954    2.3010   15.3519 C   0  0  0  0  0  0  0  0  0  0  0  0
   26.4403    0.8843   14.9725 C   0  0  0  0  0  0  0  0  0  0  0  0
   25.5309    0.9175   13.7269 C   0  0  0  0  0  0  0  0  0  0  0  0
   23.9227    1.8385   12.9060 C   0  0  0  0  0  0  0  0  0  0  0  0
   22.2989    2.0752   12.0191 C   0  0  0  0  0  0  0  0  0  0  0  0
   20.3006    1.9839   10.9380 C   0  0  0  0  0  0  0  0  0  0  0  0
   18.3150    2.3656    9.7808 C   0  0  0  0  0  0  0  0  0  0  0  0
   16.2184    2.2093    8.6564 C   0  0  0  0  0  0  0  0  0  0  0  0
   11.4443    2.5540    7.4053 H   0  0  0  0  0  0  0  0  0  0  0  0
   11.9159    3.3435    6.5484 H   0  0  0  0  0  0  0  0  0  0  0  0
   11.6726    1.2088    6.5111 H   0  0  0  0  0  0  0  0  0  0  0  0
   10.7291    1.6471    3.7971 H   0  0  0  0  0  0  0  0  0  0  0  0
    8.0409    1.4667    4.4598 H   0  0  0  0  0  0  0  0  0  0  0  0
    8.3130   -0.3999    2.5734 H   0  0  0  0  0  0  0  0  0  0  0  0
    7.2255   -0.5400    5.3579 H   0  0  0  0  0  0  0  0  0  0  0  0
    9.8024   -1.3529    4.0610 H   0  0  0  0  0  0  0  0  0  0  0  0
    9.5273   -0.1532    6.6129 H   0  0  0  0  0  0  0  0  0  0  0  0
   11.4853   -0.7262    4.5630 H   0  0  0  0  0  0  0  0  0  0  0  0
   12.1411   -0.3930    7.2471 H   0  0  0  0  0  0  0  0  0  0  0  0
   14.3256   -0.1458    5.0655 H   0  0  0  0  0  0  0  0  0  0  0  0
   13.7276   -0.5498    8.0832 H   0  0  0  0  0  0  0  0  0  0  0  0
   16.2279    0.0096    6.6743 H   0  0  0  0  0  0  0  0  0  0  0  0
   15.2974   -0.4080    9.6390 H   0  0  0  0  0  0  0  0  0  0  0  0
   17.8502    0.1583    8.1805 H   0  0  0  0  0  0  0  0  0  0  0  0
   17.0381    0.1087   11.0794 H   0  0  0  0  0  0  0  0  0  0  0  0
   19.5962   -0.3224    9.7250 H   0  0  0  0  0  0  0  0  0  0  0  0
   18.6361    0.2956   12.5163 H   0  0  0  0  0  0  0  0  0  0  0  0
   21.2194   -0.5984   11.7312 H   0  0  0  0  0  0  0  0  0  0  0  0
   20.4609    1.1254   14.1800 H   0  0  0  0  0  0  0  0  0  0  0  0
   22.9573   -0.3983   14.3039 H   0  0  0  0  0  0  0  0  0  0  0  0
   22.1555    0.7540   16.8054 H   0  0  0  0  0  0  0  0  0  0  0  0
   24.5593   -0.0333   15.5943 H   0  0  0  0  0  0  0  0  0  0  0  0
   25.6838    1.7710   17.0372 H   0  0  0  0  0  0  0  0  0  0  0  0
   27.3185    2.4472   14.4058 H   0  0  0  0  0  0  0  0  0  0  0  0
   26.9024    0.4695   16.1114 H   0  0  0  0  0  0  0  0  0  0  0  0
   26.8573    0.8400   13.8922 H   0  0  0  0  0  0  0  0  0  0  0  0
   24.0275    1.0299   13.7584 H   0  0  0  0  0  0  0  0  0  0  0  0
   22.3567    1.1165   12.6585 H   0  0  0  0  0  0  0  0  0  0  0  0
   20.1848    1.4202   11.7405 H   0  0  0  0  0  0  0  0  0  0  0  0
   21.0970    1.6424   10.2601 H   0  0  0  0  0  0  0  0  0  0  0  0
   18.2006    1.4551   10.4107 H   0  0  0  0  0  0  0  0  0  0  0  0
   19.0015    2.2725    8.9770 H   0  0  0  0  0  0  0  0  0  0  0  0
   15.6357    1.5096    9.1339 H   0  0  0  0  0  0  0  0  0  0  0  0
   16.7792    2.0452    7.5546 H   0  0  0  0  0  0  0  0  0  0  0  0
  1  2  2  0  0  0  0
  1 34  1  0  0  0  0
  1 35  1  0  0  0  0
  2  3  1  0  0  0  0
  2 33  1  0  0  0  0
  3  4  2  3  0  0  0
  3 36  1  0  0  0  0
  4  5  1  0  0  0  0
  4 37  1  0  0  0  0
  5  6  2  3  0  0  0
  5 38  1  0  0  0  0
  6  7  1  0  0  0  0
  6 39  1  0  0  0  0
  7  8  2  3  0  0  0
  7 40  1  0  0  0  0
  8  9  1  0  0  0  0
  8 41  1  0  0  0  0
  9 10  2  3  0  0  0
  9 42  1  0  0  0  0
 10 11  1  0  0  0  0
 10 43  1  0  0  0  0
 11 12  2  3  0  0  0
 11 44  1  0  0  0  0
 12 13  1  0  0  0  0
 12 45  1  0  0  0  0
 13 14  2  3  0  0  0
 13 46  1  0  0  0  0
 14 15  1  0  0  0  0
 14 47  1  0  0  0  0
 15 16  2  3  0  0  0
 15 48  1  0  0  0  0
 16 17  1  0  0  0  0
 16 49  1  0  0  0  0
 17 18  2  3  0  0  0
 17 50  1  0  0  0  0
 18 19  1  0  0  0  0
 18 51  1  0  0  0  0
 19 20  2  3  0  0  0
 19 52  1  0  0  0  0
 20 21  1  0  0  0  0
 20 53  1  0  0  0  0
 21 22  2  3  0  0  0
 21 54  1  0  0  0  0
 22 23  1  0  0  0  0
 22 55  1  0  0  0  0
 23 24  2  3  0  0  0
 23 56  1  0  0  0  0
 24 25  1  0  0  0  0
 24 57  1  0  0  0  0
 25 26  2  3  0  0  0
 25 58  1  0  0  0  0
 26 27  1  0  0  0  0
 26 59  1  0  0  0  0
 27 28  2  3  0  0  0
 27 60  1  0  0  0  0
 28 29  1  0  0  0  0
 28 61  1  0  0  0  0
 29 30  2  3  0  0  0
 29 62  1  0  0  0  0
 30 31  1  0  0  0  0
 30 63  1  0  0  0  0
 31 32  1  0  0  0  0
 31 64  1  0  0  0  0
 31 65  1  0  0  0  0
 32 33  1  0  0  0  0
 32 66  1  0  0  0  0
 32 67  1  0  0  0  0
 33 68  1  0  0  0  0
 33 69  1  0  0  0  0
M  END
$$$$
