
 OpenBabel04232217003D

 85 86  0  0  0  0  0  0  0  0999 V2000
    3.2092    1.2155    2.3466 O   0  0  0  0  0  0  0  0  0  0  0  0
    3.4743    0.7577    1.0984 C   0  0  0  0  0  0  0  0  0  0  0  0
    4.1920   -0.5348    1.1554 C   0  0  0  0  0  0  0  0  0  0  0  0
    4.5165   -1.1158   -0.0099 C   0  0  0  0  0  0  0  0  0  0  0  0
    5.2622   -2.4259   -0.0580 C   0  0  0  0  0  0  0  0  0  0  0  0
    4.3165   -3.6167   -0.1127 C   0  0  0  0  0  0  0  0  0  0  0  0
    5.0872   -4.9225   -0.1724 C   0  0  0  0  0  0  0  0  0  0  0  0
    4.0897   -6.0660   -0.2159 C   0  0  0  0  0  0  0  0  0  0  0  0
    4.8291   -7.3826   -0.2744 C   0  0  0  0  0  0  0  0  0  0  0  0
    3.8339   -8.5231   -0.3176 C   0  0  0  0  0  0  0  0  0  0  0  0
    4.5829   -9.8381   -0.3740 C   0  0  0  0  0  0  0  0  0  0  0  0
    3.5964  -10.9865   -0.4195 C   0  0  0  0  0  0  0  0  0  0  0  0
    4.3475  -12.3018   -0.4740 C   0  0  0  0  0  0  0  0  0  0  0  0
    3.3618  -13.4525   -0.5216 C   0  0  0  0  0  0  0  0  0  0  0  0
    4.1122  -14.7689   -0.5761 C   0  0  0  0  0  0  0  0  0  0  0  0
    3.1266  -15.9204   -0.6238 C   0  0  0  0  0  0  0  0  0  0  0  0
    3.8769  -17.2372   -0.6784 C   0  0  0  0  0  0  0  0  0  0  0  0
    2.8913  -18.3890   -0.7261 C   0  0  0  0  0  0  0  0  0  0  0  0
    3.6410  -19.7065   -0.7806 C   0  0  0  0  0  0  0  0  0  0  0  0
    2.6553  -20.8587   -0.8283 C   0  0  0  0  0  0  0  0  0  0  0  0
    3.4047  -22.1771   -0.8809 C   0  0  0  0  0  0  0  0  0  0  0  0
    2.4191  -23.3304   -0.9306 C   0  0  0  0  0  0  0  0  0  0  0  0
    3.1667  -24.6511   -0.9813 C   0  0  0  0  0  0  0  0  0  0  0  0
    2.1811  -25.8073   -1.0292 C   0  0  0  0  0  0  0  0  0  0  0  0
    2.9278  -27.1311   -1.0799 C   0  0  0  0  0  0  0  0  0  0  0  0
    1.9494  -28.2966   -1.1261 C   0  0  0  0  0  0  0  0  0  0  0  0
    2.6963  -29.6156   -1.1767 C   0  0  0  0  0  0  0  0  0  0  0  0
    4.1126   -0.4371   -1.1921 C   0  0  0  0  0  0  0  0  0  0  0  0
    4.2129   -0.7666   -2.5252 C   0  0  0  0  0  0  0  0  0  0  0  0
    3.4797    0.1934   -3.2458 C   0  0  0  0  0  0  0  0  0  0  0  0
    3.1201    1.1773   -2.3556 C   0  0  0  0  0  0  0  0  0  0  0  0
    3.4440    0.7678   -1.0871 N   0  0  0  0  0  0  0  0  0  0  0  0
    3.1136    1.4172    0.0685 N   0  0  0  0  0  0  0  0  0  0  0  0
    3.5051    0.6251    3.0553 H   0  0  0  0  0  0  0  0  0  0  0  0
    4.4083   -0.9548    2.1284 H   0  0  0  0  0  0  0  0  0  0  0  0
    5.9221   -2.5205    0.8102 H   0  0  0  0  0  0  0  0  0  0  0  0
    5.9065   -2.4477   -0.9455 H   0  0  0  0  0  0  0  0  0  0  0  0
    3.6633   -3.5564   -0.9951 H   0  0  0  0  0  0  0  0  0  0  0  0
    3.6717   -3.6304    0.7758 H   0  0  0  0  0  0  0  0  0  0  0  0
    5.7380   -5.0232    0.7064 H   0  0  0  0  0  0  0  0  0  0  0  0
    5.7313   -4.9492   -1.0619 H   0  0  0  0  0  0  0  0  0  0  0  0
    3.4361   -5.9615   -1.0911 H   0  0  0  0  0  0  0  0  0  0  0  0
    3.4448   -6.0354    0.6715 H   0  0  0  0  0  0  0  0  0  0  0  0
    5.4793   -7.4829    0.6030 H   0  0  0  0  0  0  0  0  0  0  0  0
    5.4714   -7.4090   -1.1629 H   0  0  0  0  0  0  0  0  0  0  0  0
    3.1832   -8.4212   -1.1949 H   0  0  0  0  0  0  0  0  0  0  0  0
    3.1894   -8.4936    0.5698 H   0  0  0  0  0  0  0  0  0  0  0  0
    5.2330   -9.9354    0.5043 H   0  0  0  0  0  0  0  0  0  0  0  0
    5.2290   -9.8620   -1.2603 H   0  0  0  0  0  0  0  0  0  0  0  0
    2.9477  -10.8876   -1.2986 H   0  0  0  0  0  0  0  0  0  0  0  0
    2.9498  -10.9595    0.4663 H   0  0  0  0  0  0  0  0  0  0  0  0
    4.9956  -12.3992    0.4058 H   0  0  0  0  0  0  0  0  0  0  0  0
    4.9956  -12.3262   -1.3588 H   0  0  0  0  0  0  0  0  0  0  0  0
    2.7140  -13.3538   -1.4014 H   0  0  0  0  0  0  0  0  0  0  0  0
    2.7140  -13.4268    0.3632 H   0  0  0  0  0  0  0  0  0  0  0  0
    4.7601  -14.8668    0.3036 H   0  0  0  0  0  0  0  0  0  0  0  0
    4.7601  -14.7938   -1.4610 H   0  0  0  0  0  0  0  0  0  0  0  0
    2.4786  -15.8221   -1.5035 H   0  0  0  0  0  0  0  0  0  0  0  0
    2.4786  -15.8951    0.2610 H   0  0  0  0  0  0  0  0  0  0  0  0
    4.5248  -17.3352    0.2015 H   0  0  0  0  0  0  0  0  0  0  0  0
    4.5248  -17.2621   -1.5633 H   0  0  0  0  0  0  0  0  0  0  0  0
    2.2434  -18.2904   -1.6057 H   0  0  0  0  0  0  0  0  0  0  0  0
    2.2434  -18.3635    0.1588 H   0  0  0  0  0  0  0  0  0  0  0  0
    4.2889  -19.8044    0.0992 H   0  0  0  0  0  0  0  0  0  0  0  0
    4.2889  -19.7314   -1.6655 H   0  0  0  0  0  0  0  0  0  0  0  0
    2.0083  -20.7605   -1.7088 H   0  0  0  0  0  0  0  0  0  0  0  0
    2.0064  -20.8320    0.0558 H   0  0  0  0  0  0  0  0  0  0  0  0
    4.0506  -22.2744    0.0003 H   0  0  0  0  0  0  0  0  0  0  0  0
    4.0547  -22.2018   -1.7641 H   0  0  0  0  0  0  0  0  0  0  0  0
    1.7742  -23.2315   -1.8125 H   0  0  0  0  0  0  0  0  0  0  0  0
    1.7683  -23.3025   -0.0480 H   0  0  0  0  0  0  0  0  0  0  0  0
    3.8132  -24.7462   -0.1001 H   0  0  0  0  0  0  0  0  0  0  0  0
    3.8170  -24.6764   -1.8644 H   0  0  0  0  0  0  0  0  0  0  0  0
    1.5355  -25.7075   -1.9103 H   0  0  0  0  0  0  0  0  0  0  0  0
    1.5317  -25.7773   -0.1456 H   0  0  0  0  0  0  0  0  0  0  0  0
    3.5761  -27.2224   -0.1996 H   0  0  0  0  0  0  0  0  0  0  0  0
    3.5777  -27.1538   -1.9634 H   0  0  0  0  0  0  0  0  0  0  0  0
    1.3028  -28.2063   -2.0067 H   0  0  0  0  0  0  0  0  0  0  0  0
    1.3012  -28.2748   -0.2423 H   0  0  0  0  0  0  0  0  0  0  0  0
    3.3329  -29.6663   -2.0658 H   0  0  0  0  0  0  0  0  0  0  0  0
    1.9905  -30.4497   -1.2098 H   0  0  0  0  0  0  0  0  0  0  0  0
    3.3312  -29.7352   -0.2930 H   0  0  0  0  0  0  0  0  0  0  0  0
    4.7023   -1.6440   -2.9212 H   0  0  0  0  0  0  0  0  0  0  0  0
    3.2686    0.1826   -4.3033 H   0  0  0  0  0  0  0  0  0  0  0  0
    2.6146    2.1222   -2.5049 H   0  0  0  0  0  0  0  0  0  0  0  0
  1  2  1  0  0  0  0
  1 34  1  0  0  0  0
  2  3  1  0  0  0  0
  2 33  2  0  0  0  0
  3  4  2  0  0  0  0
  3 35  1  0  0  0  0
  4  5  1  0  0  0  0
  4 28  1  0  0  0  0
  5  6  1  0  0  0  0
  5 36  1  0  0  0  0
  5 37  1  0  0  0  0
  6  7  1  0  0  0  0
  6 38  1  0  0  0  0
  6 39  1  0  0  0  0
  7  8  1  0  0  0  0
  7 40  1  0  0  0  0
  7 41  1  0  0  0  0
  8  9  1  0  0  0  0
  8 42  1  0  0  0  0
  8 43  1  0  0  0  0
  9 10  1  0  0  0  0
  9 44  1  0  0  0  0
  9 45  1  0  0  0  0
 10 11  1  0  0  0  0
 10 46  1  0  0  0  0
 10 47  1  0  0  0  0
 11 12  1  0  0  0  0
 11 48  1  0  0  0  0
 11 49  1  0  0  0  0
 12 13  1  0  0  0  0
 12 50  1  0  0  0  0
 12 51  1  0  0  0  0
 13 14  1  0  0  0  0
 13 52  1  0  0  0  0
 13 53  1  0  0  0  0
 14 15  1  0  0  0  0
 14 54  1  0  0  0  0
 14 55  1  0  0  0  0
 15 16  1  0  0  0  0
 15 56  1  0  0  0  0
 15 57  1  0  0  0  0
 16 17  1  0  0  0  0
 16 58  1  0  0  0  0
 16 59  1  0  0  0  0
 17 18  1  0  0  0  0
 17 60  1  0  0  0  0
 17 61  1  0  0  0  0
 18 19  1  0  0  0  0
 18 62  1  0  0  0  0
 18 63  1  0  0  0  0
 19 20  1  0  0  0  0
 19 64  1  0  0  0  0
 19 65  1  0  0  0  0
 20 21  1  0  0  0  0
 20 66  1  0  0  0  0
 20 67  1  0  0  0  0
 21 22  1  0  0  0  0
 21 68  1  0  0  0  0
 21 69  1  0  0  0  0
 22 23  1  0  0  0  0
 22 70  1  0  0  0  0
 22 71  1  0  0  0  0
 23 24  1  0  0  0  0
 23 72  1  0  0  0  0
 23 73  1  0  0  0  0
 24 25  1  0  0  0  0
 24 74  1  0  0  0  0
 24 75  1  0  0  0  0
 25 26  1  0  0  0  0
 25 76  1  0  0  0  0
 25 77  1  0  0  0  0
 26 27  1  0  0  0  0
 26 78  1  0  0  0  0
 26 79  1  0  0  0  0
 27 80  1  0  0  0  0
 27 81  1  0  0  0  0
 27 82  1  0  0  0  0
 28 29  2  0  0  0  0
 28 32  1  0  0  0  0
 29 30  1  0  0  0  0
 29 83  1  0  0  0  0
 30 31  2  0  0  0  0
 30 84  1  0  0  0  0
 31 32  1  0  0  0  0
 31 85  1  0  0  0  0
 32 33  1  0  0  0  0
M  END
$$$$
