
 OpenBabel04232216393D

 16 16  0  0  1  0  0  0  0  0999 V2000
    1.2957   -0.2352   -0.2488 C   0  0  0  0  0  0  0  0  0  0  0  0
    2.4462   -0.2329    0.0898 C   0  0  0  0  0  0  0  0  0  0  0  0
    3.8332   -0.1783    0.5346 N   0  0  0  0  0  0  0  0  0  0  0  0
    4.6217    0.8998    0.0165 C   0  0  0  0  0  0  0  0  0  0  0  0
    5.6220   -0.0654   -0.4054 C   0  0  0  0  0  3  0  0  0  0  0  0
    4.7980   -1.1639    0.1087 C   0  0  3  0  0  0  0  0  0  0  0  0
    4.3393   -2.1947   -0.9193 C   0  0  0  0  0  0  0  0  0  0  0  0
    5.7493   -3.1905   -1.5062 S   0  0  0  0  0  0  0  0  0  0  0  0
    0.2694   -0.2122   -0.5312 H   0  0  0  0  0  0  0  0  0  0  0  0
    4.9546    1.5818    0.8031 H   0  0  0  0  0  0  0  0  0  0  0  0
    4.1652    1.4580   -0.8056 H   0  0  0  0  0  0  0  0  0  0  0  0
    6.6858    0.0285   -0.2588 H   0  0  0  0  0  0  0  0  0  0  0  0
    5.2460   -1.6370    0.9931 H   0  0  0  0  0  0  0  0  0  0  0  0
    3.8668   -1.7355   -1.7940 H   0  0  0  0  0  0  0  0  0  0  0  0
    3.6223   -2.8888   -0.4678 H   0  0  0  0  0  0  0  0  0  0  0  0
    6.4600   -2.1659   -2.0031 H   0  0  0  0  0  0  0  0  0  0  0  0
  1  2  3  0  0  0  0
  1  9  1  0  0  0  0
  2  3  1  0  0  0  0
  3  4  1  0  0  0  0
  3  6  1  0  0  0  0
  4  5  1  0  0  0  0
  4 10  1  0  0  0  0
  4 11  1  0  0  0  0
  5  6  1  0  0  0  0
  5 12  1  0  0  0  0
  6  7  1  0  0  0  0
  6 13  1  0  0  0  0
  7  8  1  0  0  0  0
  7 14  1  0  0  0  0
  7 15  1  0  0  0  0
  8 16  1  0  0  0  0
M  END
$$$$
