
 OpenBabel04232216423D

 19 20  0  0  0  0  0  0  0  0999 V2000
   -1.1487    0.5586    0.5377 C   0  0  0  0  0  0  0  0  0  0  0  0
   -0.7737   -0.7354    0.1736 C   0  0  0  0  0  0  0  0  0  0  0  0
    0.5550   -0.9755   -0.1817 C   0  0  0  0  0  0  0  0  0  0  0  0
    1.4185    0.1313   -0.3193 C   0  0  0  0  0  0  0  0  0  0  0  0
    1.6647    0.3542   -1.8778 C   0  0  0  0  0  0  0  0  0  0  0  0
    2.8183    0.0224    0.2411 C   0  0  0  0  0  3  0  0  0  0  0  0
    3.1721    1.2568    0.8961 C   0  0  0  0  0  0  0  0  0  0  0  0
    2.0944    2.0539    0.9231 C   0  0  0  0  0  0  0  0  0  0  0  0
    0.9769    1.3278    0.3055 C   0  0  0  0  0  0  0  0  0  0  0  0
   -0.2888    1.5957    0.6726 N   0  0  0  0  0  0  0  0  0  0  0  0
   -2.1822    0.7865    0.7850 H   0  0  0  0  0  0  0  0  0  0  0  0
   -1.5056   -1.5357    0.1669 H   0  0  0  0  0  0  0  0  0  0  0  0
    0.8821   -1.9794   -0.4383 H   0  0  0  0  0  0  0  0  0  0  0  0
    2.1560   -0.5304   -2.3081 H   0  0  0  0  0  0  0  0  0  0  0  0
    2.3440    1.1997   -2.0460 H   0  0  0  0  0  0  0  0  0  0  0  0
    0.7116    0.5382   -2.3884 H   0  0  0  0  0  0  0  0  0  0  0  0
    3.4885   -0.7973    0.0338 H   0  0  0  0  0  0  0  0  0  0  0  0
    4.1501    1.4850    1.2898 H   0  0  0  0  0  0  0  0  0  0  0  0
    1.9961    3.0302    1.3659 H   0  0  0  0  0  0  0  0  0  0  0  0
  1  2  1  0  0  0  0
  1 10  2  0  0  0  0
  1 11  1  0  0  0  0
  2  3  2  0  0  0  0
  2 12  1  0  0  0  0
  3  4  1  0  0  0  0
  3 13  1  0  0  0  0
  4  5  1  0  0  0  0
  4  6  1  0  0  0  0
  4  9  2  0  0  0  0
  5 14  1  0  0  0  0
  5 15  1  0  0  0  0
  5 16  1  0  0  0  0
  6  7  1  0  0  0  0
  6 17  1  0  0  0  0
  7  8  2  0  0  0  0
  7 18  1  0  0  0  0
  8  9  1  0  0  0  0
  8 19  1  0  0  0  0
  9 10  1  0  0  0  0
M  END
$$$$
