
 OpenBabel04232216483D

233233  0  0  0  0  0  0  0  0999 V2000
    1.3625   -0.4959    0.2450 C   0  0  0  0  0  0  0  0  0  0  0  0
    1.1957    0.6414   -0.6955 C   0  0  0  0  0  0  0  0  0  0  0  0
    0.4212    0.9198   -1.8587 C   0  0  0  0  0  0  0  0  0  0  0  0
    1.0220    2.1488   -1.9187 C   0  0  0  0  0  0  0  0  0  0  0  0
    1.7851    1.8609   -0.7355 C   0  0  0  0  0  0  0  0  0  0  0  0
    2.8142    2.2993    0.2988 C   0  0  0  0  0  0  0  0  0  0  0  0
    3.6114    3.5761    0.4553 C   0  0  0  0  0  0  0  0  0  0  0  0
    2.7685    4.8340    0.6660 C   0  0  0  0  0  0  0  0  0  0  0  0
    3.6713    6.0611    0.8488 C   0  0  0  0  0  0  0  0  0  0  0  0
    2.9030    7.3709    1.0413 C   0  0  0  0  0  0  0  0  0  0  0  0
    3.8762    8.5407    1.2103 C   0  0  0  0  0  0  0  0  0  0  0  0
    3.1310    9.8560    1.4010 C   0  0  0  0  0  0  0  0  0  0  0  0
    4.1132   11.0076    1.5674 C   0  0  0  0  0  0  0  0  0  0  0  0
    3.3624   12.3156    1.7571 C   0  0  0  0  0  0  0  0  0  0  0  0
    4.3438   13.4626    1.9228 C   0  0  0  0  0  0  0  0  0  0  0  0
    3.5903   14.7667    2.1119 C   0  0  0  0  0  0  0  0  0  0  0  0
    4.5720   15.9119    2.2774 C   0  0  0  0  0  0  0  0  0  0  0  0
    3.8180   17.2144    2.4683 C   0  0  0  0  0  0  0  0  0  0  0  0
    4.7998   18.3588    2.6337 C   0  0  0  0  0  0  0  0  0  0  0  0
    4.0458   19.6609    2.8245 C   0  0  0  0  0  0  0  0  0  0  0  0
    5.0277   20.8049    2.9898 C   0  0  0  0  0  0  0  0  0  0  0  0
    4.2734   22.1068    3.1806 C   0  0  0  0  0  0  0  0  0  0  0  0
    5.2554   23.2507    3.3459 C   0  0  0  0  0  0  0  0  0  0  0  0
    4.5012   24.5526    3.5367 C   0  0  0  0  0  0  0  0  0  0  0  0
    5.4832   25.6965    3.7021 C   0  0  0  0  0  0  0  0  0  0  0  0
    4.7290   26.9984    3.8928 C   0  0  0  0  0  0  0  0  0  0  0  0
    5.7109   28.1424    4.0582 C   0  0  0  0  0  0  0  0  0  0  0  0
    4.9567   29.4440    4.2509 C   0  0  0  0  0  0  0  0  0  0  0  0
    5.9387   30.5880    4.4163 C   0  0  0  0  0  0  0  0  0  0  0  0
    5.1845   31.8899    4.6070 C   0  0  0  0  0  0  0  0  0  0  0  0
    6.1664   33.0339    4.7724 C   0  0  0  0  0  0  0  0  0  0  0  0
    5.4122   34.3361    4.9611 C   0  0  0  0  0  0  0  0  0  0  0  0
    6.3942   35.4801    5.1265 C   0  0  0  0  0  0  0  0  0  0  0  0
    5.6400   36.7820    5.3172 C   0  0  0  0  0  0  0  0  0  0  0  0
    6.6219   37.9257    5.4846 C   0  0  0  0  0  0  0  0  0  0  0  0
    5.8677   39.2279    5.6734 C   0  0  0  0  0  0  0  0  0  0  0  0
    6.8497   40.3715    5.8407 C   0  0  0  0  0  0  0  0  0  0  0  0
    6.0954   41.6738    6.0295 C   0  0  0  0  0  0  0  0  0  0  0  0
    7.0774   42.8174    6.1968 C   0  0  0  0  0  0  0  0  0  0  0  0
    6.3232   44.1196    6.3856 C   0  0  0  0  0  0  0  0  0  0  0  0
    7.3052   45.2633    6.5530 C   0  0  0  0  0  0  0  0  0  0  0  0
    6.5509   46.5652    6.7437 C   0  0  0  0  0  0  0  0  0  0  0  0
    7.5329   47.7092    6.9091 C   0  0  0  0  0  0  0  0  0  0  0  0
    6.7787   49.0114    7.0978 C   0  0  0  0  0  0  0  0  0  0  0  0
    7.7607   50.1557    7.2612 C   0  0  0  0  0  0  0  0  0  0  0  0
    7.0064   51.4582    7.4479 C   0  0  0  0  0  0  0  0  0  0  0  0
    7.9884   52.6021    7.6133 C   0  0  0  0  0  0  0  0  0  0  0  0
    7.2342   53.9049    7.7981 C   0  0  0  0  0  0  0  0  0  0  0  0
    8.2161   55.0489    7.9634 C   0  0  0  0  0  0  0  0  0  0  0  0
    7.4619   56.3517    8.1482 C   0  0  0  0  0  0  0  0  0  0  0  0
    8.4439   57.4956    8.3136 C   0  0  0  0  0  0  0  0  0  0  0  0
    7.6896   58.7981    8.5003 C   0  0  0  0  0  0  0  0  0  0  0  0
    8.6716   59.9421    8.6657 C   0  0  0  0  0  0  0  0  0  0  0  0
    7.9174   61.2443    8.8544 C   0  0  0  0  0  0  0  0  0  0  0  0
    8.8993   62.3883    9.0198 C   0  0  0  0  0  0  0  0  0  0  0  0
    8.1451   63.6908    9.2065 C   0  0  0  0  0  0  0  0  0  0  0  0
    9.1271   64.8348    9.3719 C   0  0  0  0  0  0  0  0  0  0  0  0
    8.3729   66.1370    9.5606 C   0  0  0  0  0  0  0  0  0  0  0  0
    9.3548   67.2807    9.7280 C   0  0  0  0  0  0  0  0  0  0  0  0
    8.6006   68.5827    9.9187 C   0  0  0  0  0  0  0  0  0  0  0  0
    9.5825   69.7267   10.0842 C   0  0  0  0  0  0  0  0  0  0  0  0
    8.8284   71.0290   10.2729 C   0  0  0  0  0  0  0  0  0  0  0  0
    9.8103   72.1728   10.4404 C   0  0  0  0  0  0  0  0  0  0  0  0
    9.0563   73.4755   10.6271 C   0  0  0  0  0  0  0  0  0  0  0  0
   10.0385   74.6194   10.7925 C   0  0  0  0  0  0  0  0  0  0  0  0
    9.2850   75.9225   10.9776 C   0  0  0  0  0  0  0  0  0  0  0  0
   10.2670   77.0665   11.1414 C   0  0  0  0  0  0  0  0  0  0  0  0
    9.5125   78.3691   11.3252 C   0  0  0  0  0  0  0  0  0  0  0  0
   10.4939   79.5136   11.4888 C   0  0  0  0  0  0  0  0  0  0  0  0
    9.7395   80.8169   11.6696 C   0  0  0  0  0  0  0  0  0  0  0  0
   10.7213   81.9617   11.8309 C   0  0  0  0  0  0  0  0  0  0  0  0
    9.9673   83.2659   12.0098 C   0  0  0  0  0  0  0  0  0  0  0  0
   10.9490   84.4115   12.1712 C   0  0  0  0  0  0  0  0  0  0  0  0
   10.1950   85.7161   12.3522 C   0  0  0  0  0  0  0  0  0  0  0  0
   11.1755   86.8644   12.5120 C   0  0  0  0  0  0  0  0  0  0  0  0
   10.4224   88.1717   12.6933 C   0  0  0  0  0  0  0  0  0  0  0  0
   11.4028   89.3230   12.8536 C   0  0  0  0  0  0  0  0  0  0  0  0
   10.6583   90.6382   13.0380 C   0  0  0  0  0  0  0  0  0  0  0  0
   11.6379   91.7844   13.1975 C   0  0  0  0  0  0  0  0  0  0  0  0
    0.7357   -1.3480   -0.0009 H   0  0  0  0  0  0  0  0  0  0  0  0
    1.1804   -0.1297    1.2609 H   0  0  0  0  0  0  0  0  0  0  0  0
    2.4250   -0.7613    0.2687 H   0  0  0  0  0  0  0  0  0  0  0  0
   -0.3070    0.3579   -2.4151 H   0  0  0  0  0  0  0  0  0  0  0  0
    0.8583    2.9315   -2.6610 H   0  0  0  0  0  0  0  0  0  0  0  0
    3.5457    1.4661    0.3037 H   0  0  0  0  0  0  0  0  0  0  0  0
    2.3299    2.1040    1.2712 H   0  0  0  0  0  0  0  0  0  0  0  0
    4.2880    3.6937   -0.3987 H   0  0  0  0  0  0  0  0  0  0  0  0
    4.2756    3.4435    1.3370 H   0  0  0  0  0  0  0  0  0  0  0  0
    2.1194    4.7237    1.5430 H   0  0  0  0  0  0  0  0  0  0  0  0
    2.1178    4.9827   -0.2004 H   0  0  0  0  0  0  0  0  0  0  0  0
    4.3219    6.1607   -0.0281 H   0  0  0  0  0  0  0  0  0  0  0  0
    4.3234    5.9048    1.7170 H   0  0  0  0  0  0  0  0  0  0  0  0
    2.2573    7.3068    1.9255 H   0  0  0  0  0  0  0  0  0  0  0  0
    2.2546    7.5617    0.1775 H   0  0  0  0  0  0  0  0  0  0  0  0
    4.5267    8.6165    0.3298 H   0  0  0  0  0  0  0  0  0  0  0  0
    4.5274    8.3636    2.0757 H   0  0  0  0  0  0  0  0  0  0  0  0
    2.4842    9.7948    2.2847 H   0  0  0  0  0  0  0  0  0  0  0  0
    2.4836   10.0479    0.5367 H   0  0  0  0  0  0  0  0  0  0  0  0
    4.7619   11.0783    0.6855 H   0  0  0  0  0  0  0  0  0  0  0  0
    4.7624   10.8253    2.4328 H   0  0  0  0  0  0  0  0  0  0  0  0
    2.7147   12.2506    2.6400 H   0  0  0  0  0  0  0  0  0  0  0  0
    2.7141   12.5037    0.8924 H   0  0  0  0  0  0  0  0  0  0  0  0
    4.9918   13.5315    1.0404 H   0  0  0  0  0  0  0  0  0  0  0  0
    4.9924   13.2785    2.7882 H   0  0  0  0  0  0  0  0  0  0  0  0
    2.9425   14.7001    2.9947 H   0  0  0  0  0  0  0  0  0  0  0  0
    2.9419   14.9532    1.2469 H   0  0  0  0  0  0  0  0  0  0  0  0
    5.2189   15.9807    1.3942 H   0  0  0  0  0  0  0  0  0  0  0  0
    5.2214   15.7261    3.1418 H   0  0  0  0  0  0  0  0  0  0  0  0
    3.1711   17.1463    3.3516 H   0  0  0  0  0  0  0  0  0  0  0  0
    3.1686   17.4010    1.6040 H   0  0  0  0  0  0  0  0  0  0  0  0
    5.4468   18.4273    1.7504 H   0  0  0  0  0  0  0  0  0  0  0  0
    5.4492   18.1727    3.4980 H   0  0  0  0  0  0  0  0  0  0  0  0
    3.3989   19.5927    3.7079 H   0  0  0  0  0  0  0  0  0  0  0  0
    3.3964   19.8475    1.9603 H   0  0  0  0  0  0  0  0  0  0  0  0
    5.6747   20.8734    2.1065 H   0  0  0  0  0  0  0  0  0  0  0  0
    5.6772   20.6187    3.8541 H   0  0  0  0  0  0  0  0  0  0  0  0
    3.6263   22.0384    4.0638 H   0  0  0  0  0  0  0  0  0  0  0  0
    3.6239   22.2930    2.3164 H   0  0  0  0  0  0  0  0  0  0  0  0
    5.9025   23.3190    2.4627 H   0  0  0  0  0  0  0  0  0  0  0  0
    5.9049   23.0643    4.2102 H   0  0  0  0  0  0  0  0  0  0  0  0
    3.8541   24.4842    4.4199 H   0  0  0  0  0  0  0  0  0  0  0  0
    3.8517   24.7388    2.6724 H   0  0  0  0  0  0  0  0  0  0  0  0
    6.1303   25.7648    2.8189 H   0  0  0  0  0  0  0  0  0  0  0  0
    6.1326   25.5102    4.5663 H   0  0  0  0  0  0  0  0  0  0  0  0
    4.0819   26.9301    4.7760 H   0  0  0  0  0  0  0  0  0  0  0  0
    4.0795   27.1847    3.0285 H   0  0  0  0  0  0  0  0  0  0  0  0
    6.3571   28.2116    3.1743 H   0  0  0  0  0  0  0  0  0  0  0  0
    6.3613   27.9554    4.9216 H   0  0  0  0  0  0  0  0  0  0  0  0
    4.3106   29.3748    5.1347 H   0  0  0  0  0  0  0  0  0  0  0  0
    4.3063   29.6310    3.3875 H   0  0  0  0  0  0  0  0  0  0  0  0
    6.5858   30.6563    3.5331 H   0  0  0  0  0  0  0  0  0  0  0  0
    6.5881   30.4017    5.2806 H   0  0  0  0  0  0  0  0  0  0  0  0
    4.5374   31.8216    5.4902 H   0  0  0  0  0  0  0  0  0  0  0  0
    4.5350   32.0762    3.7427 H   0  0  0  0  0  0  0  0  0  0  0  0
    6.8145   33.1013    3.8898 H   0  0  0  0  0  0  0  0  0  0  0  0
    6.8149   32.8482    5.6375 H   0  0  0  0  0  0  0  0  0  0  0  0
    4.7642   34.2686    5.8437 H   0  0  0  0  0  0  0  0  0  0  0  0
    4.7637   34.5217    4.0960 H   0  0  0  0  0  0  0  0  0  0  0  0
    7.0413   35.5484    4.2433 H   0  0  0  0  0  0  0  0  0  0  0  0
    7.0436   35.2938    5.9908 H   0  0  0  0  0  0  0  0  0  0  0  0
    4.9918   36.7132    6.1996 H   0  0  0  0  0  0  0  0  0  0  0  0
    4.9916   36.9690    4.4523 H   0  0  0  0  0  0  0  0  0  0  0  0
    7.2710   37.9936    4.6029 H   0  0  0  0  0  0  0  0  0  0  0  0
    7.2693   37.7393    6.3504 H   0  0  0  0  0  0  0  0  0  0  0  0
    5.2186   39.1599    6.5551 H   0  0  0  0  0  0  0  0  0  0  0  0
    5.2203   39.4142    4.8076 H   0  0  0  0  0  0  0  0  0  0  0  0
    7.4988   40.4395    4.9590 H   0  0  0  0  0  0  0  0  0  0  0  0
    7.4971   40.1852    6.7065 H   0  0  0  0  0  0  0  0  0  0  0  0
    5.4463   41.6058    6.9112 H   0  0  0  0  0  0  0  0  0  0  0  0
    5.4480   41.8601    5.1637 H   0  0  0  0  0  0  0  0  0  0  0  0
    7.7265   42.8854    5.3151 H   0  0  0  0  0  0  0  0  0  0  0  0
    7.7248   42.6311    7.0626 H   0  0  0  0  0  0  0  0  0  0  0  0
    5.6741   44.0517    7.2673 H   0  0  0  0  0  0  0  0  0  0  0  0
    5.6758   44.3060    5.5198 H   0  0  0  0  0  0  0  0  0  0  0  0
    7.9533   45.3321    5.6706 H   0  0  0  0  0  0  0  0  0  0  0  0
    7.9535   45.0763    7.4179 H   0  0  0  0  0  0  0  0  0  0  0  0
    5.9038   46.4969    7.6269 H   0  0  0  0  0  0  0  0  0  0  0  0
    5.9015   46.7515    5.8794 H   0  0  0  0  0  0  0  0  0  0  0  0
    8.1809   47.7766    6.0265 H   0  0  0  0  0  0  0  0  0  0  0  0
    8.1814   47.5236    7.7742 H   0  0  0  0  0  0  0  0  0  0  0  0
    6.1317   48.9445    7.9812 H   0  0  0  0  0  0  0  0  0  0  0  0
    6.1291   49.1963    6.2333 H   0  0  0  0  0  0  0  0  0  0  0  0
    8.4086   50.2217    6.3784 H   0  0  0  0  0  0  0  0  0  0  0  0
    8.4093   49.9714    8.1265 H   0  0  0  0  0  0  0  0  0  0  0  0
    6.3574   51.3917    8.3299 H   0  0  0  0  0  0  0  0  0  0  0  0
    6.3589   51.6430    6.5819 H   0  0  0  0  0  0  0  0  0  0  0  0
    8.6383   52.6678    6.7320 H   0  0  0  0  0  0  0  0  0  0  0  0
    8.6350   52.4179    8.4802 H   0  0  0  0  0  0  0  0  0  0  0  0
    6.5842   53.8393    8.6794 H   0  0  0  0  0  0  0  0  0  0  0  0
    6.5876   54.0892    6.9312 H   0  0  0  0  0  0  0  0  0  0  0  0
    8.8661   55.1145    7.0821 H   0  0  0  0  0  0  0  0  0  0  0  0
    8.8627   54.8647    8.8303 H   0  0  0  0  0  0  0  0  0  0  0  0
    6.8120   56.2860    9.0295 H   0  0  0  0  0  0  0  0  0  0  0  0
    6.8153   56.5359    7.2813 H   0  0  0  0  0  0  0  0  0  0  0  0
    9.0929   57.5621    7.4316 H   0  0  0  0  0  0  0  0  0  0  0  0
    9.0914   57.3107    9.1796 H   0  0  0  0  0  0  0  0  0  0  0  0
    7.0407   58.7316    9.3822 H   0  0  0  0  0  0  0  0  0  0  0  0
    7.0421   58.9831    7.6343 H   0  0  0  0  0  0  0  0  0  0  0  0
    9.3196   60.0095    7.7831 H   0  0  0  0  0  0  0  0  0  0  0  0
    9.3201   59.7565    9.5308 H   0  0  0  0  0  0  0  0  0  0  0  0
    7.2693   61.1769    9.7370 H   0  0  0  0  0  0  0  0  0  0  0  0
    7.2689   61.4299    7.9893 H   0  0  0  0  0  0  0  0  0  0  0  0
    9.5483   62.4548    8.1378 H   0  0  0  0  0  0  0  0  0  0  0  0
    9.5469   62.2033    9.8858 H   0  0  0  0  0  0  0  0  0  0  0  0
    7.4961   63.6242   10.0885 H   0  0  0  0  0  0  0  0  0  0  0  0
    7.4976   63.8757    8.3406 H   0  0  0  0  0  0  0  0  0  0  0  0
    9.7751   64.9022    8.4894 H   0  0  0  0  0  0  0  0  0  0  0  0
    9.7755   64.6491   10.2371 H   0  0  0  0  0  0  0  0  0  0  0  0
    7.7238   66.0691   10.4424 H   0  0  0  0  0  0  0  0  0  0  0  0
    7.7254   66.3233    8.6949 H   0  0  0  0  0  0  0  0  0  0  0  0
   10.0030   67.3495    8.8457 H   0  0  0  0  0  0  0  0  0  0  0  0
   10.0032   67.0937   10.5930 H   0  0  0  0  0  0  0  0  0  0  0  0
    7.9535   68.5143   10.8019 H   0  0  0  0  0  0  0  0  0  0  0  0
    7.9512   68.7689    9.0545 H   0  0  0  0  0  0  0  0  0  0  0  0
   10.2306   69.7941    9.2017 H   0  0  0  0  0  0  0  0  0  0  0  0
   10.2310   69.5410   10.9494 H   0  0  0  0  0  0  0  0  0  0  0  0
    8.1791   70.9611   11.1546 H   0  0  0  0  0  0  0  0  0  0  0  0
    8.1811   71.2153    9.4070 H   0  0  0  0  0  0  0  0  0  0  0  0
   10.4605   72.2398    9.5594 H   0  0  0  0  0  0  0  0  0  0  0  0
   10.4566   71.9871   11.3071 H   0  0  0  0  0  0  0  0  0  0  0  0
    8.4073   73.4092   11.5091 H   0  0  0  0  0  0  0  0  0  0  0  0
    8.4088   73.6605    9.7611 H   0  0  0  0  0  0  0  0  0  0  0  0
   10.6882   74.6850    9.9110 H   0  0  0  0  0  0  0  0  0  0  0  0
   10.6851   74.4350   11.6593 H   0  0  0  0  0  0  0  0  0  0  0  0
    8.6359   75.8576   11.8595 H   0  0  0  0  0  0  0  0  0  0  0  0
    8.6379   76.1066   10.1110 H   0  0  0  0  0  0  0  0  0  0  0  0
   10.9157   77.1318   10.2592 H   0  0  0  0  0  0  0  0  0  0  0  0
   10.9144   76.8833   12.0082 H   0  0  0  0  0  0  0  0  0  0  0  0
    8.8625   78.3041   12.2065 H   0  0  0  0  0  0  0  0  0  0  0  0
    8.8661   78.5525   10.4580 H   0  0  0  0  0  0  0  0  0  0  0  0
   11.1446   79.5771   10.6079 H   0  0  0  0  0  0  0  0  0  0  0  0
   11.1394   79.3313   12.3569 H   0  0  0  0  0  0  0  0  0  0  0  0
    9.0900   80.7538   12.5514 H   0  0  0  0  0  0  0  0  0  0  0  0
    9.0926   80.9981   10.8022 H   0  0  0  0  0  0  0  0  0  0  0  0
   11.3718   82.0234   10.9496 H   0  0  0  0  0  0  0  0  0  0  0  0
   11.3672   81.7807   12.6989 H   0  0  0  0  0  0  0  0  0  0  0  0
    9.3169   83.2033   12.8908 H   0  0  0  0  0  0  0  0  0  0  0  0
    9.3215   83.4460   11.1416 H   0  0  0  0  0  0  0  0  0  0  0  0
   11.5984   84.4736   11.2893 H   0  0  0  0  0  0  0  0  0  0  0  0
   11.5958   84.2295   13.0384 H   0  0  0  0  0  0  0  0  0  0  0  0
    9.5465   85.6525   13.2346 H   0  0  0  0  0  0  0  0  0  0  0  0
    9.5471   85.8955   11.4854 H   0  0  0  0  0  0  0  0  0  0  0  0
   11.8240   86.9252   11.6292 H   0  0  0  0  0  0  0  0  0  0  0  0
   11.8235   86.6822   13.3782 H   0  0  0  0  0  0  0  0  0  0  0  0
    9.7738   88.1068   13.5758 H   0  0  0  0  0  0  0  0  0  0  0  0
    9.7743   88.3499   11.8263 H   0  0  0  0  0  0  0  0  0  0  0  0
   12.0504   89.3812   11.9701 H   0  0  0  0  0  0  0  0  0  0  0  0
   12.0518   89.1368   13.7181 H   0  0  0  0  0  0  0  0  0  0  0  0
   10.0124   90.5802   13.9219 H   0  0  0  0  0  0  0  0  0  0  0  0
   10.0110   90.8248   12.1732 H   0  0  0  0  0  0  0  0  0  0  0  0
   12.2791   91.6271   14.0708 H   0  0  0  0  0  0  0  0  0  0  0  0
   11.0999   92.7269   13.3298 H   0  0  0  0  0  0  0  0  0  0  0  0
   12.2777   91.8728   12.3137 H   0  0  0  0  0  0  0  0  0  0  0  0
  1  2  1  0  0  0  0
  1 80  1  0  0  0  0
  1 81  1  0  0  0  0
  1 82  1  0  0  0  0
  2  3  1  0  0  0  0
  2  5  2  0  0  0  0
  3  4  2  0  0  0  0
  3 83  1  0  0  0  0
  4  5  1  0  0  0  0
  4 84  1  0  0  0  0
  5  6  1  0  0  0  0
  6  7  1  0  0  0  0
  6 85  1  0  0  0  0
  6 86  1  0  0  0  0
  7  8  1  0  0  0  0
  7 87  1  0  0  0  0
  7 88  1  0  0  0  0
  8  9  1  0  0  0  0
  8 89  1  0  0  0  0
  8 90  1  0  0  0  0
  9 10  1  0  0  0  0
  9 91  1  0  0  0  0
  9 92  1  0  0  0  0
 10 11  1  0  0  0  0
 10 93  1  0  0  0  0
 10 94  1  0  0  0  0
 11 12  1  0  0  0  0
 11 95  1  0  0  0  0
 11 96  1  0  0  0  0
 12 13  1  0  0  0  0
 12 97  1  0  0  0  0
 12 98  1  0  0  0  0
 13 14  1  0  0  0  0
 13 99  1  0  0  0  0
 13100  1  0  0  0  0
 14 15  1  0  0  0  0
 14101  1  0  0  0  0
 14102  1  0  0  0  0
 15 16  1  0  0  0  0
 15103  1  0  0  0  0
 15104  1  0  0  0  0
 16 17  1  0  0  0  0
 16105  1  0  0  0  0
 16106  1  0  0  0  0
 17 18  1  0  0  0  0
 17107  1  0  0  0  0
 17108  1  0  0  0  0
 18 19  1  0  0  0  0
 18109  1  0  0  0  0
 18110  1  0  0  0  0
 19 20  1  0  0  0  0
 19111  1  0  0  0  0
 19112  1  0  0  0  0
 20 21  1  0  0  0  0
 20113  1  0  0  0  0
 20114  1  0  0  0  0
 21 22  1  0  0  0  0
 21115  1  0  0  0  0
 21116  1  0  0  0  0
 22 23  1  0  0  0  0
 22117  1  0  0  0  0
 22118  1  0  0  0  0
 23 24  1  0  0  0  0
 23119  1  0  0  0  0
 23120  1  0  0  0  0
 24 25  1  0  0  0  0
 24121  1  0  0  0  0
 24122  1  0  0  0  0
 25 26  1  0  0  0  0
 25123  1  0  0  0  0
 25124  1  0  0  0  0
 26 27  1  0  0  0  0
 26125  1  0  0  0  0
 26126  1  0  0  0  0
 27 28  1  0  0  0  0
 27127  1  0  0  0  0
 27128  1  0  0  0  0
 28 29  1  0  0  0  0
 28129  1  0  0  0  0
 28130  1  0  0  0  0
 29 30  1  0  0  0  0
 29131  1  0  0  0  0
 29132  1  0  0  0  0
 30 31  1  0  0  0  0
 30133  1  0  0  0  0
 30134  1  0  0  0  0
 31 32  1  0  0  0  0
 31135  1  0  0  0  0
 31136  1  0  0  0  0
 32 33  1  0  0  0  0
 32137  1  0  0  0  0
 32138  1  0  0  0  0
 33 34  1  0  0  0  0
 33139  1  0  0  0  0
 33140  1  0  0  0  0
 34 35  1  0  0  0  0
 34141  1  0  0  0  0
 34142  1  0  0  0  0
 35 36  1  0  0  0  0
 35143  1  0  0  0  0
 35144  1  0  0  0  0
 36 37  1  0  0  0  0
 36145  1  0  0  0  0
 36146  1  0  0  0  0
 37 38  1  0  0  0  0
 37147  1  0  0  0  0
 37148  1  0  0  0  0
 38 39  1  0  0  0  0
 38149  1  0  0  0  0
 38150  1  0  0  0  0
 39 40  1  0  0  0  0
 39151  1  0  0  0  0
 39152  1  0  0  0  0
 40 41  1  0  0  0  0
 40153  1  0  0  0  0
 40154  1  0  0  0  0
 41 42  1  0  0  0  0
 41155  1  0  0  0  0
 41156  1  0  0  0  0
 42 43  1  0  0  0  0
 42157  1  0  0  0  0
 42158  1  0  0  0  0
 43 44  1  0  0  0  0
 43159  1  0  0  0  0
 43160  1  0  0  0  0
 44 45  1  0  0  0  0
 44161  1  0  0  0  0
 44162  1  0  0  0  0
 45 46  1  0  0  0  0
 45163  1  0  0  0  0
 45164  1  0  0  0  0
 46 47  1  0  0  0  0
 46165  1  0  0  0  0
 46166  1  0  0  0  0
 47 48  1  0  0  0  0
 47167  1  0  0  0  0
 47168  1  0  0  0  0
 48 49  1  0  0  0  0
 48169  1  0  0  0  0
 48170  1  0  0  0  0
 49 50  1  0  0  0  0
 49171  1  0  0  0  0
 49172  1  0  0  0  0
 50 51  1  0  0  0  0
 50173  1  0  0  0  0
 50174  1  0  0  0  0
 51 52  1  0  0  0  0
 51175  1  0  0  0  0
 51176  1  0  0  0  0
 52 53  1  0  0  0  0
 52177  1  0  0  0  0
 52178  1  0  0  0  0
 53 54  1  0  0  0  0
 53179  1  0  0  0  0
 53180  1  0  0  0  0
 54 55  1  0  0  0  0
 54181  1  0  0  0  0
 54182  1  0  0  0  0
 55 56  1  0  0  0  0
 55183  1  0  0  0  0
 55184  1  0  0  0  0
 56 57  1  0  0  0  0
 56185  1  0  0  0  0
 56186  1  0  0  0  0
 57 58  1  0  0  0  0
 57187  1  0  0  0  0
 57188  1  0  0  0  0
 58 59  1  0  0  0  0
 58189  1  0  0  0  0
 58190  1  0  0  0  0
 59 60  1  0  0  0  0
 59191  1  0  0  0  0
 59192  1  0  0  0  0
 60 61  1  0  0  0  0
 60193  1  0  0  0  0
 60194  1  0  0  0  0
 61 62  1  0  0  0  0
 61195  1  0  0  0  0
 61196  1  0  0  0  0
 62 63  1  0  0  0  0
 62197  1  0  0  0  0
 62198  1  0  0  0  0
 63 64  1  0  0  0  0
 63199  1  0  0  0  0
 63200  1  0  0  0  0
 64 65  1  0  0  0  0
 64201  1  0  0  0  0
 64202  1  0  0  0  0
 65 66  1  0  0  0  0
 65203  1  0  0  0  0
 65204  1  0  0  0  0
 66 67  1  0  0  0  0
 66205  1  0  0  0  0
 66206  1  0  0  0  0
 67 68  1  0  0  0  0
 67207  1  0  0  0  0
 67208  1  0  0  0  0
 68 69  1  0  0  0  0
 68209  1  0  0  0  0
 68210  1  0  0  0  0
 69 70  1  0  0  0  0
 69211  1  0  0  0  0
 69212  1  0  0  0  0
 70 71  1  0  0  0  0
 70213  1  0  0  0  0
 70214  1  0  0  0  0
 71 72  1  0  0  0  0
 71215  1  0  0  0  0
 71216  1  0  0  0  0
 72 73  1  0  0  0  0
 72217  1  0  0  0  0
 72218  1  0  0  0  0
 73 74  1  0  0  0  0
 73219  1  0  0  0  0
 73220  1  0  0  0  0
 74 75  1  0  0  0  0
 74221  1  0  0  0  0
 74222  1  0  0  0  0
 75 76  1  0  0  0  0
 75223  1  0  0  0  0
 75224  1  0  0  0  0
 76 77  1  0  0  0  0
 76225  1  0  0  0  0
 76226  1  0  0  0  0
 77 78  1  0  0  0  0
 77227  1  0  0  0  0
 77228  1  0  0  0  0
 78 79  1  0  0  0  0
 78229  1  0  0  0  0
 78230  1  0  0  0  0
 79231  1  0  0  0  0
 79232  1  0  0  0  0
 79233  1  0  0  0  0
M  END
$$$$
