
 OpenBabel04232216523D

 66 66  0  0  0  0  0  0  0  0999 V2000
    1.0530   -0.0796   -0.0120 C   0  0  0  0  0  0  0  0  0  0  0  0
    2.5696   -0.0755   -0.0065 C   0  0  0  0  0  0  0  0  0  0  0  0
    3.0957    1.0325    0.8954 C   0  0  0  0  0  0  0  0  0  0  0  0
    4.6165    1.0411    0.9019 C   0  0  0  0  0  0  0  0  0  0  0  0
    5.1312    2.1517    1.8034 C   0  0  0  0  0  0  0  0  0  0  0  0
    6.6502    2.1599    1.8071 C   0  0  0  0  0  0  0  0  0  0  0  0
    7.1629    3.2699    2.7080 C   0  0  0  0  0  0  0  0  0  0  0  0
    8.6816    3.2775    2.7113 C   0  0  0  0  0  0  0  0  0  0  0  0
    9.1960    4.3875    3.6122 C   0  0  0  0  0  0  0  0  0  0  0  0
   10.7161    4.3940    3.6144 C   0  0  0  0  0  0  0  0  0  0  0  0
   11.2394    5.5025    4.5140 C   0  0  0  0  0  0  0  0  0  0  0  0
   12.7641    5.5111    4.5197 C   0  0  0  0  0  0  0  0  0  0  0  0
   13.2787    6.6232    5.4252 C   0  0  0  0  0  0  0  0  0  0  0  0
   14.8036    6.6708    5.4660 C   0  0  0  0  0  0  0  0  0  0  0  0
   15.2948    7.7894    6.3829 C   0  0  0  0  0  0  0  0  0  0  0  0
   14.5053    8.5153    6.9736 O   0  0  0  0  0  0  0  0  0  0  0  0
   16.7714    7.8996    6.4943 C   0  0  0  0  0  0  0  0  0  0  0  0
   17.5084    8.4838    7.4640 C   0  0  0  0  0  0  0  0  0  0  0  0
   17.1941    9.2077    8.7660 C   0  0  0  0  0  0  0  0  0  0  0  0
   18.2587   10.2523    9.0961 C   0  0  0  0  0  0  0  0  0  0  0  0
   17.9677   10.9760   10.4091 C   0  0  0  0  0  0  0  0  0  0  0  0
   19.0315   12.0235   10.7018 C   0  0  0  0  0  0  0  0  0  0  0  0
   18.8145    8.1452    6.7629 C   0  0  0  0  0  0  0  0  0  0  0  0
   17.9509    7.4884    5.6663 C   0  0  0  0  0  0  0  0  0  0  0  0
    0.6779   -0.8759   -0.6602 H   0  0  0  0  0  0  0  0  0  0  0  0
    0.6647    0.8759   -0.3788 H   0  0  0  0  0  0  0  0  0  0  0  0
    0.6628   -0.2435    0.9976 H   0  0  0  0  0  0  0  0  0  0  0  0
    2.9409    0.0670   -1.0281 H   0  0  0  0  0  0  0  0  0  0  0  0
    2.9390   -1.0472    0.3417 H   0  0  0  0  0  0  0  0  0  0  0  0
    2.7236    0.8900    1.9175 H   0  0  0  0  0  0  0  0  0  0  0  0
    2.7232    2.0044    0.5487 H   0  0  0  0  0  0  0  0  0  0  0  0
    4.9942    1.1864   -0.1176 H   0  0  0  0  0  0  0  0  0  0  0  0
    4.9946    0.0733    1.2536 H   0  0  0  0  0  0  0  0  0  0  0  0
    4.7577    2.0079    2.8248 H   0  0  0  0  0  0  0  0  0  0  0  0
    4.7550    3.1214    1.4545 H   0  0  0  0  0  0  0  0  0  0  0  0
    7.0254    2.3051    0.7865 H   0  0  0  0  0  0  0  0  0  0  0  0
    7.0282    1.1914    2.1570 H   0  0  0  0  0  0  0  0  0  0  0  0
    6.7883    3.1250    3.7287 H   0  0  0  0  0  0  0  0  0  0  0  0
    6.7856    4.2387    2.3582 H   0  0  0  0  0  0  0  0  0  0  0  0
    9.0556    3.4219    1.6901 H   0  0  0  0  0  0  0  0  0  0  0  0
    9.0584    2.3081    3.0602 H   0  0  0  0  0  0  0  0  0  0  0  0
    8.8202    4.2423    4.6325 H   0  0  0  0  0  0  0  0  0  0  0  0
    8.8179    5.3558    3.2619 H   0  0  0  0  0  0  0  0  0  0  0  0
   11.0867    4.5374    2.5921 H   0  0  0  0  0  0  0  0  0  0  0  0
   11.0897    3.4234    3.9628 H   0  0  0  0  0  0  0  0  0  0  0  0
   10.8626    5.3577    5.5341 H   0  0  0  0  0  0  0  0  0  0  0  0
   10.8606    6.4711    4.1649 H   0  0  0  0  0  0  0  0  0  0  0  0
   13.1368    5.6545    3.4981 H   0  0  0  0  0  0  0  0  0  0  0  0
   13.1358    4.5403    4.8692 H   0  0  0  0  0  0  0  0  0  0  0  0
   12.8865    6.4728    6.4388 H   0  0  0  0  0  0  0  0  0  0  0  0
   12.8885    7.5873    5.0757 H   0  0  0  0  0  0  0  0  0  0  0  0
   15.1994    6.8267    4.4565 H   0  0  0  0  0  0  0  0  0  0  0  0
   15.1917    5.7200    5.8491 H   0  0  0  0  0  0  0  0  0  0  0  0
   17.1498    8.4523    9.5653 H   0  0  0  0  0  0  0  0  0  0  0  0
   16.1870    9.6279    8.7365 H   0  0  0  0  0  0  0  0  0  0  0  0
   18.3064   10.9887    8.2822 H   0  0  0  0  0  0  0  0  0  0  0  0
   19.2513    9.7863    9.1518 H   0  0  0  0  0  0  0  0  0  0  0  0
   17.9357   10.2536   11.2323 H   0  0  0  0  0  0  0  0  0  0  0  0
   16.9860   11.4615   10.3607 H   0  0  0  0  0  0  0  0  0  0  0  0
   20.0213   11.5630   10.7848 H   0  0  0  0  0  0  0  0  0  0  0  0
   18.8140   12.5354   11.6441 H   0  0  0  0  0  0  0  0  0  0  0  0
   19.0702   12.7752    9.9066 H   0  0  0  0  0  0  0  0  0  0  0  0
   19.4706    7.4520    7.2986 H   0  0  0  0  0  0  0  0  0  0  0  0
   19.4098    9.0014    6.4275 H   0  0  0  0  0  0  0  0  0  0  0  0
   18.1131    6.4124    5.5497 H   0  0  0  0  0  0  0  0  0  0  0  0
   18.0361    7.9641    4.6829 H   0  0  0  0  0  0  0  0  0  0  0  0
  1  2  1  0  0  0  0
  1 25  1  0  0  0  0
  1 26  1  0  0  0  0
  1 27  1  0  0  0  0
  2  3  1  0  0  0  0
  2 28  1  0  0  0  0
  2 29  1  0  0  0  0
  3  4  1  0  0  0  0
  3 30  1  0  0  0  0
  3 31  1  0  0  0  0
  4  5  1  0  0  0  0
  4 32  1  0  0  0  0
  4 33  1  0  0  0  0
  5  6  1  0  0  0  0
  5 34  1  0  0  0  0
  5 35  1  0  0  0  0
  6  7  1  0  0  0  0
  6 36  1  0  0  0  0
  6 37  1  0  0  0  0
  7  8  1  0  0  0  0
  7 38  1  0  0  0  0
  7 39  1  0  0  0  0
  8  9  1  0  0  0  0
  8 40  1  0  0  0  0
  8 41  1  0  0  0  0
  9 10  1  0  0  0  0
  9 42  1  0  0  0  0
  9 43  1  0  0  0  0
 10 11  1  0  0  0  0
 10 44  1  0  0  0  0
 10 45  1  0  0  0  0
 11 12  1  0  0  0  0
 11 46  1  0  0  0  0
 11 47  1  0  0  0  0
 12 13  1  0  0  0  0
 12 48  1  0  0  0  0
 12 49  1  0  0  0  0
 13 14  1  0  0  0  0
 13 50  1  0  0  0  0
 13 51  1  0  0  0  0
 14 15  1  0  0  0  0
 14 52  1  0  0  0  0
 14 53  1  0  0  0  0
 15 16  2  0  0  0  0
 15 17  1  0  0  0  0
 17 18  2  0  0  0  0
 17 24  1  0  0  0  0
 18 19  1  0  0  0  0
 18 23  1  0  0  0  0
 19 20  1  0  0  0  0
 19 54  1  0  0  0  0
 19 55  1  0  0  0  0
 20 21  1  0  0  0  0
 20 56  1  0  0  0  0
 20 57  1  0  0  0  0
 21 22  1  0  0  0  0
 21 58  1  0  0  0  0
 21 59  1  0  0  0  0
 22 60  1  0  0  0  0
 22 61  1  0  0  0  0
 22 62  1  0  0  0  0
 23 24  1  0  0  0  0
 23 63  1  0  0  0  0
 23 64  1  0  0  0  0
 24 65  1  0  0  0  0
 24 66  1  0  0  0  0
M  END
$$$$
