
 OpenBabel04232216523D

 51 52  0  0  0  0  0  0  0  0999 V2000
   11.1819    8.4547    4.3777 C   0  0  0  0  0  0  0  0  0  0  0  0
   10.8694    7.6386    3.1363 C   0  0  0  0  0  0  0  0  0  0  0  0
   10.2361    6.2973    3.5067 C   0  0  0  0  0  0  0  0  0  0  0  0
    9.9394    5.5070    2.2508 C   0  0  0  0  0  0  0  0  0  0  0  0
    8.8025    4.9968    1.7187 C   0  0  0  0  0  0  0  0  0  0  0  0
    9.5082    4.4332    0.6082 C   0  0  0  0  0  0  0  0  0  0  0  0
    9.1467    3.6885   -0.4369 C   0  0  0  0  0  0  0  0  0  0  0  0
   10.0970    3.1717   -1.4641 C   0  0  0  0  0  0  0  0  0  0  0  0
   10.1554    1.6463   -1.4037 C   0  0  0  0  0  0  0  0  0  0  0  0
   11.0318    1.1066   -2.5173 C   0  0  0  0  0  0  0  0  0  0  0  0
   12.4984    1.4925   -2.4295 C   0  0  0  0  0  0  0  0  0  0  0  0
   13.0196    1.7422   -1.3439 O   0  0  0  0  0  0  0  0  0  0  0  0
   13.2168    1.5330   -3.7102 C   0  0  0  0  0  0  0  0  0  0  0  0
   14.4741    2.0878   -4.0732 C   0  0  0  0  0  0  0  0  0  0  0  0
   14.2817    1.6454   -5.3407 C   0  0  0  0  0  0  0  0  0  0  0  0
   13.0395    1.0754   -4.9458 C   0  0  0  0  0  0  0  0  0  0  0  0
   11.9948    0.2691   -5.6061 C   0  0  0  0  0  0  0  0  0  0  0  0
   10.8495    0.1168   -5.1676 O   0  0  0  0  0  0  0  0  0  0  0  0
   12.3262   -0.4328   -6.9003 C   0  0  0  0  0  0  0  0  0  0  0  0
   13.5151   -1.3807   -6.8154 C   0  0  0  0  0  0  0  0  0  0  0  0
   13.4389   -2.3749   -5.6529 C   0  0  0  0  0  0  0  0  0  0  0  0
   14.6894   -3.2388   -5.6167 C   0  0  0  0  0  0  0  0  0  0  0  0
   10.8112    4.9990    1.1121 C   0  0  0  0  0  0  0  0  0  0  0  0
   11.6187    9.4177    4.0980 H   0  0  0  0  0  0  0  0  0  0  0  0
   11.8951    7.9285    5.0200 H   0  0  0  0  0  0  0  0  0  0  0  0
   10.2730    8.6461    4.9568 H   0  0  0  0  0  0  0  0  0  0  0  0
   11.7915    7.4811    2.5630 H   0  0  0  0  0  0  0  0  0  0  0  0
   10.1890    8.2066    2.4896 H   0  0  0  0  0  0  0  0  0  0  0  0
    9.3313    6.4320    4.1066 H   0  0  0  0  0  0  0  0  0  0  0  0
   10.9904    5.7474    4.0814 H   0  0  0  0  0  0  0  0  0  0  0  0
    7.7582    4.9844    2.0160 H   0  0  0  0  0  0  0  0  0  0  0  0
    8.0997    3.4198   -0.5454 H   0  0  0  0  0  0  0  0  0  0  0  0
   11.0979    3.5919   -1.3119 H   0  0  0  0  0  0  0  0  0  0  0  0
    9.7633    3.5059   -2.4536 H   0  0  0  0  0  0  0  0  0  0  0  0
    9.1448    1.2382   -1.5416 H   0  0  0  0  0  0  0  0  0  0  0  0
   10.5113    1.3035   -0.4256 H   0  0  0  0  0  0  0  0  0  0  0  0
   10.6249    1.5263   -3.4397 H   0  0  0  0  0  0  0  0  0  0  0  0
   10.9715    0.0143   -2.5482 H   0  0  0  0  0  0  0  0  0  0  0  0
   15.2394    2.6410   -3.5379 H   0  0  0  0  0  0  0  0  0  0  0  0
   14.8556    1.7047   -6.2602 H   0  0  0  0  0  0  0  0  0  0  0  0
   12.4739    0.3209   -7.6802 H   0  0  0  0  0  0  0  0  0  0  0  0
   11.4374   -1.0115   -7.1852 H   0  0  0  0  0  0  0  0  0  0  0  0
   14.4420   -0.8042   -6.7432 H   0  0  0  0  0  0  0  0  0  0  0  0
   13.5676   -1.9379   -7.7580 H   0  0  0  0  0  0  0  0  0  0  0  0
   12.5522   -3.0111   -5.7548 H   0  0  0  0  0  0  0  0  0  0  0  0
   13.3527   -1.8533   -4.6933 H   0  0  0  0  0  0  0  0  0  0  0  0
   14.7931   -3.8124   -6.5428 H   0  0  0  0  0  0  0  0  0  0  0  0
   14.6475   -3.9407   -4.7789 H   0  0  0  0  0  0  0  0  0  0  0  0
   15.5836   -2.6181   -5.4954 H   0  0  0  0  0  0  0  0  0  0  0  0
   11.2773    5.7680    0.4837 H   0  0  0  0  0  0  0  0  0  0  0  0
   11.5857    4.2722    1.3838 H   0  0  0  0  0  0  0  0  0  0  0  0
  1  2  1  0  0  0  0
  1 24  1  0  0  0  0
  1 25  1  0  0  0  0
  1 26  1  0  0  0  0
  2  3  1  0  0  0  0
  2 27  1  0  0  0  0
  2 28  1  0  0  0  0
  3  4  1  0  0  0  0
  3 29  1  0  0  0  0
  3 30  1  0  0  0  0
  4  5  2  0  0  0  0
  4 23  1  0  0  0  0
  5  6  1  0  0  0  0
  5 31  1  0  0  0  0
  6  7  2  3  0  0  0
  6 23  1  0  0  0  0
  7  8  1  0  0  0  0
  7 32  1  0  0  0  0
  8  9  1  0  0  0  0
  8 33  1  0  0  0  0
  8 34  1  0  0  0  0
  9 10  1  0  0  0  0
  9 35  1  0  0  0  0
  9 36  1  0  0  0  0
 10 11  1  0  0  0  0
 10 37  1  0  0  0  0
 10 38  1  0  0  0  0
 11 12  2  0  0  0  0
 11 13  1  0  0  0  0
 13 14  1  0  0  0  0
 13 16  2  0  0  0  0
 14 15  2  0  0  0  0
 14 39  1  0  0  0  0
 15 16  1  0  0  0  0
 15 40  1  0  0  0  0
 16 17  1  0  0  0  0
 17 18  2  0  0  0  0
 17 19  1  0  0  0  0
 19 20  1  0  0  0  0
 19 41  1  0  0  0  0
 19 42  1  0  0  0  0
 20 21  1  0  0  0  0
 20 43  1  0  0  0  0
 20 44  1  0  0  0  0
 21 22  1  0  0  0  0
 21 45  1  0  0  0  0
 21 46  1  0  0  0  0
 22 47  1  0  0  0  0
 22 48  1  0  0  0  0
 22 49  1  0  0  0  0
 23 50  1  0  0  0  0
 23 51  1  0  0  0  0
M  END
$$$$
