
 OpenBabel04232216493D

 71 71  0  0  0  0  0  0  0  0999 V2000
    8.3179   -4.0947    2.0416 C   0  0  0  0  0  0  0  0  0  0  0  0
    9.2480   -3.3003    3.0768 C   0  0  0  0  0  0  0  0  0  0  0  0
    8.0597   -2.1892    3.2630 C   0  0  0  0  0  0  0  0  0  0  0  0
    7.0760   -1.5111    2.5165 C   0  0  0  0  0  0  0  0  0  0  0  0
    6.4460   -0.2172    2.9984 C   0  0  0  0  0  0  0  0  0  0  0  0
    7.3593    0.8024    3.0766 C   0  0  0  0  0  0  0  0  0  0  0  0
    8.1793    0.9875    1.9241 N   0  0  0  0  0  0  0  0  0  0  0  0
    8.3241    2.1176    1.0160 C   0  0  0  0  0  0  0  0  0  0  0  0
    9.4053    1.8093   -0.0780 C   0  0  0  0  0  0  0  0  0  0  0  0
    9.1344    0.7195   -1.1581 C   0  0  0  0  0  0  0  0  0  0  0  0
   10.3115    0.6701   -2.1729 C   0  0  0  0  0  0  0  0  0  0  0  0
   10.1699   -0.3928   -3.2818 C   0  0  0  0  0  0  0  0  0  0  0  0
   11.3944   -0.3635   -4.2309 C   0  0  0  0  0  0  0  0  0  0  0  0
   11.2787   -1.4240   -5.3162 C   0  0  0  0  0  0  0  0  0  0  0  0
    8.0028    0.5794    4.4387 C   0  0  0  0  0  0  0  0  0  0  0  0
    9.1587   -0.0719    4.6176 C   0  0  0  0  0  0  0  0  0  0  0  0
   10.1499   -0.2118    3.4842 C   0  0  0  0  0  0  0  0  0  0  0  0
    9.2109   -1.1076    5.7273 C   0  0  0  0  0  0  0  0  0  0  0  0
   10.3266   -1.5674    6.2303 C   0  0  0  0  0  0  0  0  0  0  0  0
   11.4691   -0.9402    5.8730 N   0  0  0  0  0  0  0  0  0  0  0  0
   12.4770   -1.1100    6.5507 C   0  0  0  0  0  0  0  0  0  0  0  0
   12.5209   -1.8573    7.6948 N   0  0  0  0  0  0  0  0  0  0  0  0
   13.7153   -1.9081    8.1261 C   0  0  0  0  0  0  0  0  0  0  0  0
   14.2157   -2.5232    9.3261 C   0  0  0  0  0  0  0  0  0  0  0  0
   15.4458   -2.0605    9.4535 C   0  0  0  0  0  0  0  0  0  0  0  0
   16.4866   -3.0195    9.3509 C   0  0  0  0  0  0  0  0  0  0  0  0
   16.8659   -3.3666    8.0934 C   0  0  0  0  0  0  0  0  0  0  0  0
   15.9382   -4.0950    7.0449 C   0  0  0  0  0  0  0  0  0  0  0  0
   14.8618   -4.2937    6.0863 C   0  0  0  0  0  0  0  0  0  0  0  0
   13.6078   -3.5872    5.1445 C   0  0  0  0  0  0  0  0  0  0  0  0
   12.3268   -3.3749    4.3593 C   0  0  0  0  0  0  0  0  0  0  0  0
   10.6400   -3.6648    3.6392 C   0  0  0  0  0  0  0  0  0  0  0  0
    7.6940   -4.8465    2.5351 H   0  0  0  0  0  0  0  0  0  0  0  0
    8.7380   -4.2696    1.0448 H   0  0  0  0  0  0  0  0  0  0  0  0
    7.4683   -3.5024    1.6506 H   0  0  0  0  0  0  0  0  0  0  0  0
    7.7166   -2.2194    4.2783 H   0  0  0  0  0  0  0  0  0  0  0  0
    6.8913   -1.5655    1.4423 H   0  0  0  0  0  0  0  0  0  0  0  0
    5.7044   -0.3179    3.7993 H   0  0  0  0  0  0  0  0  0  0  0  0
    7.9363    0.2255    1.2974 H   0  0  0  0  0  0  0  0  0  0  0  0
    8.6509    3.0020    1.5730 H   0  0  0  0  0  0  0  0  0  0  0  0
    7.3702    2.3423    0.5292 H   0  0  0  0  0  0  0  0  0  0  0  0
   10.3470    1.5478    0.4221 H   0  0  0  0  0  0  0  0  0  0  0  0
    9.5860    2.7455   -0.6200 H   0  0  0  0  0  0  0  0  0  0  0  0
    8.2065    0.9401   -1.6967 H   0  0  0  0  0  0  0  0  0  0  0  0
    9.0226   -0.2658   -0.6938 H   0  0  0  0  0  0  0  0  0  0  0  0
   11.2437    0.4808   -1.6297 H   0  0  0  0  0  0  0  0  0  0  0  0
   10.4143    1.6528   -2.6515 H   0  0  0  0  0  0  0  0  0  0  0  0
    9.2606   -0.2086   -3.8620 H   0  0  0  0  0  0  0  0  0  0  0  0
   10.0855   -1.3819   -2.8319 H   0  0  0  0  0  0  0  0  0  0  0  0
   12.3059   -0.5507   -3.6528 H   0  0  0  0  0  0  0  0  0  0  0  0
   11.4891    0.6206   -4.6954 H   0  0  0  0  0  0  0  0  0  0  0  0
   11.2220   -2.4309   -4.8955 H   0  0  0  0  0  0  0  0  0  0  0  0
   12.1618   -1.3900   -5.9712 H   0  0  0  0  0  0  0  0  0  0  0  0
   10.3967   -1.2595   -5.9402 H   0  0  0  0  0  0  0  0  0  0  0  0
    7.2765    0.4134    5.2457 H   0  0  0  0  0  0  0  0  0  0  0  0
    9.7290   -0.4219    2.4920 H   0  0  0  0  0  0  0  0  0  0  0  0
   10.9362   -1.0068    3.5053 H   0  0  0  0  0  0  0  0  0  0  0  0
   10.7363    0.7130    3.3722 H   0  0  0  0  0  0  0  0  0  0  0  0
    8.3117   -1.6907    5.9684 H   0  0  0  0  0  0  0  0  0  0  0  0
   10.3557   -2.5533    6.7303 H   0  0  0  0  0  0  0  0  0  0  0  0
   13.4006   -0.5903    6.1756 H   0  0  0  0  0  0  0  0  0  0  0  0
   14.5118   -1.4387    7.4888 H   0  0  0  0  0  0  0  0  0  0  0  0
   13.9446   -3.5649    9.5349 H   0  0  0  0  0  0  0  0  0  0  0  0
   15.7496   -1.0877    8.9996 H   0  0  0  0  0  0  0  0  0  0  0  0
   17.0354   -3.1947   10.2844 H   0  0  0  0  0  0  0  0  0  0  0  0
   17.9216   -3.7170    8.1303 H   0  0  0  0  0  0  0  0  0  0  0  0
   16.5568   -5.0207    7.1117 H   0  0  0  0  0  0  0  0  0  0  0  0
   15.0615   -5.2595    5.6560 H   0  0  0  0  0  0  0  0  0  0  0  0
   14.2548   -2.6798    4.9489 H   0  0  0  0  0  0  0  0  0  0  0  0
   12.4929   -2.4832    3.8909 H   0  0  0  0  0  0  0  0  0  0  0  0
   10.5156   -2.7500    4.2883 H   0  0  0  0  0  0  0  0  0  0  0  0
  1  2  1  0  0  0  0
  1 33  1  0  0  0  0
  1 34  1  0  0  0  0
  1 35  1  0  0  0  0
  2  3  1  0  0  0  0
  2 32  2  3  0  0  0
  3  4  2  3  0  0  0
  3 36  1  0  0  0  0
  4  5  1  0  0  0  0
  4 37  1  0  0  0  0
  5  6  2  3  0  0  0
  5 38  1  0  0  0  0
  6  7  1  0  0  0  0
  6 15  1  0  0  0  0
  7  8  1  0  0  0  0
  7 39  1  0  0  0  0
  8  9  1  0  0  0  0
  8 40  1  0  0  0  0
  8 41  1  0  0  0  0
  9 10  1  0  0  0  0
  9 42  1  0  0  0  0
  9 43  1  0  0  0  0
 10 11  1  0  0  0  0
 10 44  1  0  0  0  0
 10 45  1  0  0  0  0
 11 12  1  0  0  0  0
 11 46  1  0  0  0  0
 11 47  1  0  0  0  0
 12 13  1  0  0  0  0
 12 48  1  0  0  0  0
 12 49  1  0  0  0  0
 13 14  1  0  0  0  0
 13 50  1  0  0  0  0
 13 51  1  0  0  0  0
 14 52  1  0  0  0  0
 14 53  1  0  0  0  0
 14 54  1  0  0  0  0
 15 16  2  3  0  0  0
 15 55  1  0  0  0  0
 16 17  1  0  0  0  0
 16 18  1  0  0  0  0
 17 56  1  0  0  0  0
 17 57  1  0  0  0  0
 17 58  1  0  0  0  0
 18 19  2  3  0  0  0
 18 59  1  0  0  0  0
 19 20  1  0  0  0  0
 19 60  1  0  0  0  0
 20 21  2  3  0  0  0
 21 22  1  0  0  0  0
 21 61  1  0  0  0  0
 22 23  2  3  0  0  0
 23 24  1  0  0  0  0
 23 62  1  0  0  0  0
 24 25  2  3  0  0  0
 24 63  1  0  0  0  0
 25 26  1  0  0  0  0
 25 64  1  0  0  0  0
 26 27  2  3  0  0  0
 26 65  1  0  0  0  0
 27 28  1  0  0  0  0
 27 66  1  0  0  0  0
 28 29  2  3  0  0  0
 28 67  1  0  0  0  0
 29 30  1  0  0  0  0
 29 68  1  0  0  0  0
 30 31  2  3  0  0  0
 30 69  1  0  0  0  0
 31 32  1  0  0  0  0
 31 70  1  0  0  0  0
 32 71  1  0  0  0  0
M  END
$$$$
