
 OpenBabel04232216503D

 60 61  0  0  0  0  0  0  0  0999 V2000
    2.4678    2.3583   -0.5850 C   0  0  0  0  0  0  0  0  0  0  0  0
    3.9316    2.1206   -0.9609 C   0  0  0  0  0  0  0  0  0  0  0  0
    4.1221    0.8443   -1.3953 N   0  0  0  0  0  2  0  0  0  0  0  0
    4.6331   -0.1803   -0.4550 C   0  0  0  0  0  0  0  0  0  0  0  0
    3.5703   -0.8748    0.2646 N   0  0  0  0  0  0  0  0  0  0  0  0
    5.5205    0.4475    0.6284 C   0  0  0  0  0  0  0  0  0  0  0  0
    5.0201    1.4795    1.6619 C   0  0  0  0  0  0  0  0  0  0  0  0
    3.7029    1.2208    2.3657 C   0  0  0  0  0  0  0  0  0  0  0  0
    3.9396    0.3230    3.5589 C   0  0  0  0  0  0  0  0  0  0  0  0
    2.6591    0.1562    4.3542 C   0  0  0  0  0  0  0  0  0  0  0  0
    2.9543   -0.6024    5.6304 C   0  0  0  0  0  0  0  0  0  0  0  0
    5.3848   -1.3125   -1.2876 C   0  0  0  0  0  0  0  0  0  0  0  0
    4.6908   -2.5993   -1.6926 C   0  0  0  0  0  0  0  0  0  0  0  0
    6.7971   -1.4320   -1.4633 C   0  0  0  0  0  0  0  0  0  0  0  0
    7.7510   -2.3098   -1.5030 C   0  0  0  0  0  0  0  0  0  0  0  0
    8.1306   -0.9209   -1.4196 C   0  0  0  0  0  0  0  0  0  0  0  0
    8.6139   -0.3802   -0.2797 C   0  0  0  0  0  0  0  0  0  0  0  0
    9.3852    0.8465   -0.1921 C   0  0  0  0  0  0  0  0  0  0  0  0
    8.7235    1.9522    0.1561 C   0  0  0  0  0  0  0  0  0  0  0  0
    8.9901    3.2893    0.6091 C   0  0  0  0  0  0  0  0  0  0  0  0
   10.3897    3.7842    0.7278 C   0  0  0  0  0  0  0  0  0  0  0  0
    7.8526    3.9737    0.8322 C   0  0  0  0  0  0  0  0  0  0  0  0
    7.5501    5.3284    1.1179 C   0  0  0  0  0  0  0  0  0  0  0  0
    6.3788    5.8656    0.7375 C   0  0  0  0  0  0  0  0  0  0  0  0
    5.2332    5.4261   -0.0870 C   0  0  0  0  0  0  0  0  0  0  0  0
    4.6142    4.3759   -0.7006 C   0  0  0  0  0  0  0  0  0  0  0  0
    4.9004    3.0361   -0.9382 N   0  0  0  0  0  0  0  0  0  0  0  0
    1.9312    1.4158   -0.4126 H   0  0  0  0  0  0  0  0  0  0  0  0
    1.9407    2.8956   -1.3786 H   0  0  0  0  0  0  0  0  0  0  0  0
    2.3951    2.9390    0.3403 H   0  0  0  0  0  0  0  0  0  0  0  0
    3.9172   -1.1293    1.1814 H   0  0  0  0  0  0  0  0  0  0  0  0
    3.2716   -1.7301   -0.1690 H   0  0  0  0  0  0  0  0  0  0  0  0
    6.2458    0.9593    0.0313 H   0  0  0  0  0  0  0  0  0  0  0  0
    6.0257   -0.3404    1.1918 H   0  0  0  0  0  0  0  0  0  0  0  0
    4.9442    2.4787    1.2463 H   0  0  0  0  0  0  0  0  0  0  0  0
    5.8221    1.6053    2.3998 H   0  0  0  0  0  0  0  0  0  0  0  0
    2.9290    0.8166    1.7112 H   0  0  0  0  0  0  0  0  0  0  0  0
    3.2955    2.1812    2.7057 H   0  0  0  0  0  0  0  0  0  0  0  0
    4.7137    0.7727    4.1921 H   0  0  0  0  0  0  0  0  0  0  0  0
    4.3184   -0.6537    3.2366 H   0  0  0  0  0  0  0  0  0  0  0  0
    1.9143   -0.3791    3.7544 H   0  0  0  0  0  0  0  0  0  0  0  0
    2.2379    1.1384    4.5994 H   0  0  0  0  0  0  0  0  0  0  0  0
    3.4527   -1.5520    5.4114 H   0  0  0  0  0  0  0  0  0  0  0  0
    2.0287   -0.8073    6.1716 H   0  0  0  0  0  0  0  0  0  0  0  0
    3.6129   -0.0131    6.2774 H   0  0  0  0  0  0  0  0  0  0  0  0
    3.6178   -2.4908   -1.8644 H   0  0  0  0  0  0  0  0  0  0  0  0
    4.8437   -3.3535   -0.9080 H   0  0  0  0  0  0  0  0  0  0  0  0
    5.0980   -3.0167   -2.6229 H   0  0  0  0  0  0  0  0  0  0  0  0
    7.9381   -3.3295   -1.3233 H   0  0  0  0  0  0  0  0  0  0  0  0
    8.0639   -0.6067    0.6262 H   0  0  0  0  0  0  0  0  0  0  0  0
   10.4588    0.7789   -0.2215 H   0  0  0  0  0  0  0  0  0  0  0  0
    7.6591    1.8425    0.0452 H   0  0  0  0  0  0  0  0  0  0  0  0
   11.1169    2.9789    0.5733 H   0  0  0  0  0  0  0  0  0  0  0  0
   10.5803    4.1872    1.7286 H   0  0  0  0  0  0  0  0  0  0  0  0
   10.5936    4.5601   -0.0148 H   0  0  0  0  0  0  0  0  0  0  0  0
    6.9060    3.4337    0.7682 H   0  0  0  0  0  0  0  0  0  0  0  0
    8.2742    5.9096    1.6871 H   0  0  0  0  0  0  0  0  0  0  0  0
    6.2485    6.8994    1.0746 H   0  0  0  0  0  0  0  0  0  0  0  0
    4.6882    6.3538   -0.3007 H   0  0  0  0  0  0  0  0  0  0  0  0
    3.7069    4.6815   -1.2260 H   0  0  0  0  0  0  0  0  0  0  0  0
  1  2  1  0  0  0  0
  1 28  1  0  0  0  0
  1 29  1  0  0  0  0
  1 30  1  0  0  0  0
  2  3  1  0  0  0  0
  2 27  2  3  0  0  0
  3  4  1  0  0  0  0
  4  5  1  0  0  0  0
  4  6  1  0  0  0  0
  4 12  2  0  0  0  0
  5 31  1  0  0  0  0
  5 32  1  0  0  0  0
  6  7  1  0  0  0  0
  6 33  1  0  0  0  0
  6 34  1  0  0  0  0
  7  8  1  0  0  0  0
  7 35  1  0  0  0  0
  7 36  1  0  0  0  0
  8  9  1  0  0  0  0
  8 37  1  0  0  0  0
  8 38  1  0  0  0  0
  9 10  1  0  0  0  0
  9 39  1  0  0  0  0
  9 40  1  0  0  0  0
 10 11  1  0  0  0  0
 10 41  1  0  0  0  0
 10 42  1  0  0  0  0
 11 43  1  0  0  0  0
 11 44  1  0  0  0  0
 11 45  1  0  0  0  0
 12 13  1  0  0  0  0
 12 14  1  0  0  0  0
 13 46  1  0  0  0  0
 13 47  1  0  0  0  0
 13 48  1  0  0  0  0
 14 15  2  0  0  0  0
 14 16  1  0  0  0  0
 15 16  1  0  0  0  0
 15 49  1  0  0  0  0
 16 17  2  3  0  0  0
 17 18  1  0  0  0  0
 17 50  1  0  0  0  0
 18 19  2  3  0  0  0
 18 51  1  0  0  0  0
 19 20  1  0  0  0  0
 19 52  1  0  0  0  0
 20 21  1  0  0  0  0
 20 22  2  3  0  0  0
 21 53  1  0  0  0  0
 21 54  1  0  0  0  0
 21 55  1  0  0  0  0
 22 23  1  0  0  0  0
 22 56  1  0  0  0  0
 23 24  2  3  0  0  0
 23 57  1  0  0  0  0
 24 25  1  0  0  0  0
 24 58  1  0  0  0  0
 25 26  2  3  0  0  0
 25 59  1  0  0  0  0
 26 27  1  0  0  0  0
 26 60  1  0  0  0  0
M  END
$$$$
