
 OpenBabel04232217013D

232232  0  0  0  0  0  0  0  0999 V2000
    3.0853   -0.1127    2.8814 O   0  0  0  0  0  0  0  0  0  0  0  0
    2.8739   -0.1258    1.5602 N   0  0  0  0  0  0  0  0  0  0  0  0
    2.4690    0.4219    0.5246 C   0  0  0  0  0  0  0  0  0  0  0  0
    2.9874   -0.8660    0.4315 C   0  0  0  0  0  0  0  0  0  0  0  0
    3.6653   -2.1553    0.8767 C   0  0  0  0  0  0  0  0  0  0  0  0
    2.7675   -3.3468    1.3117 C   0  0  0  0  0  0  0  0  0  0  0  0
    3.5504   -4.6106    1.7655 C   0  0  0  0  0  0  0  0  0  0  0  0
    2.5933   -5.7428    2.1768 C   0  0  0  0  0  0  0  0  0  0  0  0
    3.3427   -6.9978    2.6258 C   0  0  0  0  0  0  0  0  0  0  0  0
    2.3638   -8.0975    3.0253 C   0  0  0  0  0  0  0  0  0  0  0  0
    3.1157   -9.3429    3.4730 C   0  0  0  0  0  0  0  0  0  0  0  0
    2.1335  -10.4331    3.8691 C   0  0  0  0  0  0  0  0  0  0  0  0
    2.8846  -11.6751    4.3156 C   0  0  0  0  0  0  0  0  0  0  0  0
    1.9036  -12.7637    4.7108 C   0  0  0  0  0  0  0  0  0  0  0  0
    2.6576  -14.0030    5.1566 C   0  0  0  0  0  0  0  0  0  0  0  0
    1.6762  -15.0904    5.5515 C   0  0  0  0  0  0  0  0  0  0  0  0
    2.4301  -16.3297    5.9950 C   0  0  0  0  0  0  0  0  0  0  0  0
    1.4483  -17.4163    6.3897 C   0  0  0  0  0  0  0  0  0  0  0  0
    2.2023  -18.6554    6.8330 C   0  0  0  0  0  0  0  0  0  0  0  0
    1.2205  -19.7419    7.2277 C   0  0  0  0  0  0  0  0  0  0  0  0
    1.9745  -20.9808    7.6710 C   0  0  0  0  0  0  0  0  0  0  0  0
    0.9927  -22.0673    8.0656 C   0  0  0  0  0  0  0  0  0  0  0  0
    1.7468  -23.3062    8.5089 C   0  0  0  0  0  0  0  0  0  0  0  0
    0.7650  -24.3926    8.9035 C   0  0  0  0  0  0  0  0  0  0  0  0
    1.5191  -25.6315    9.3468 C   0  0  0  0  0  0  0  0  0  0  0  0
    0.5372  -26.7179    9.7414 C   0  0  0  0  0  0  0  0  0  0  0  0
    1.2913  -27.9575   10.1828 C   0  0  0  0  0  0  0  0  0  0  0  0
    0.3095  -29.0439   10.5774 C   0  0  0  0  0  0  0  0  0  0  0  0
    1.0635  -30.2828   11.0207 C   0  0  0  0  0  0  0  0  0  0  0  0
    0.0817  -31.3699   11.4134 C   0  0  0  0  0  0  0  0  0  0  0  0
    0.8358  -32.6088   11.8567 C   0  0  0  0  0  0  0  0  0  0  0  0
   -0.1460  -33.6952   12.2513 C   0  0  0  0  0  0  0  0  0  0  0  0
    0.6080  -34.9335   12.6965 C   0  0  0  0  0  0  0  0  0  0  0  0
   -0.3738  -36.0199   13.0912 C   0  0  0  0  0  0  0  0  0  0  0  0
    0.3803  -37.2581   13.5363 C   0  0  0  0  0  0  0  0  0  0  0  0
   -0.6015  -38.3445   13.9310 C   0  0  0  0  0  0  0  0  0  0  0  0
    0.1526  -39.5827   14.3761 C   0  0  0  0  0  0  0  0  0  0  0  0
   -0.8293  -40.6691   14.7708 C   0  0  0  0  0  0  0  0  0  0  0  0
   -0.0752  -41.9074   15.2159 C   0  0  0  0  0  0  0  0  0  0  0  0
   -1.0570  -42.9944   15.6087 C   0  0  0  0  0  0  0  0  0  0  0  0
   -0.3029  -44.2320   16.0557 C   0  0  0  0  0  0  0  0  0  0  0  0
   -1.2848  -45.3191   16.4485 C   0  0  0  0  0  0  0  0  0  0  0  0
   -0.5307  -46.5566   16.8955 C   0  0  0  0  0  0  0  0  0  0  0  0
   -1.5125  -47.6437   17.2883 C   0  0  0  0  0  0  0  0  0  0  0  0
   -0.7584  -48.8806   17.7373 C   0  0  0  0  0  0  0  0  0  0  0  0
   -1.7403  -49.9670   18.1319 C   0  0  0  0  0  0  0  0  0  0  0  0
   -0.9862  -51.2045   18.5790 C   0  0  0  0  0  0  0  0  0  0  0  0
   -1.9680  -52.2916   18.9717 C   0  0  0  0  0  0  0  0  0  0  0  0
   -1.2139  -53.5285   19.4206 C   0  0  0  0  0  0  0  0  0  0  0  0
   -2.1958  -54.6149   19.8153 C   0  0  0  0  0  0  0  0  0  0  0  0
   -1.4417  -55.8517   20.2643 C   0  0  0  0  0  0  0  0  0  0  0  0
   -2.4235  -56.9381   20.6589 C   0  0  0  0  0  0  0  0  0  0  0  0
   -1.6694  -58.1743   21.1097 C   0  0  0  0  0  0  0  0  0  0  0  0
   -2.6513  -59.2607   21.5044 C   0  0  0  0  0  0  0  0  0  0  0  0
   -1.8972  -60.4968   21.9553 C   0  0  0  0  0  0  0  0  0  0  0  0
   -2.8790  -61.5826   22.3518 C   0  0  0  0  0  0  0  0  0  0  0  0
   -2.1249  -62.8187   22.8026 C   0  0  0  0  0  0  0  0  0  0  0  0
   -3.1068  -63.9051   23.1973 C   0  0  0  0  0  0  0  0  0  0  0  0
   -2.3527  -65.1406   23.6500 C   0  0  0  0  0  0  0  0  0  0  0  0
   -3.3345  -66.2263   24.0466 C   0  0  0  0  0  0  0  0  0  0  0  0
   -2.5805  -67.4624   24.4974 C   0  0  0  0  0  0  0  0  0  0  0  0
   -3.5623  -68.5475   24.8958 C   0  0  0  0  0  0  0  0  0  0  0  0
   -2.8082  -69.7829   25.3486 C   0  0  0  0  0  0  0  0  0  0  0  0
   -3.7900  -70.8686   25.7451 C   0  0  0  0  0  0  0  0  0  0  0  0
   -3.0359  -72.1034   26.1997 C   0  0  0  0  0  0  0  0  0  0  0  0
   -4.0178  -73.1897   26.5944 C   0  0  0  0  0  0  0  0  0  0  0  0
   -3.2637  -74.4245   27.0490 C   0  0  0  0  0  0  0  0  0  0  0  0
   -4.2456  -75.5101   27.4455 C   0  0  0  0  0  0  0  0  0  0  0  0
   -3.4914  -76.7442   27.9021 C   0  0  0  0  0  0  0  0  0  0  0  0
   -4.4731  -77.8295   28.3006 C   0  0  0  0  0  0  0  0  0  0  0  0
   -3.7190  -79.0647   28.7554 C   0  0  0  0  0  0  0  0  0  0  0  0
   -4.7003  -80.1513   29.1523 C   0  0  0  0  0  0  0  0  0  0  0  0
   -3.9482  -81.3875   29.6074 C   0  0  0  0  0  0  0  0  0  0  0  0
   -4.9307  -82.4729   30.0060 C   0  0  0  0  0  0  0  0  0  0  0  0
   -4.1760  -83.7091   30.4590 C   0  0  0  0  0  0  0  0  0  0  0  0
   -5.1569  -84.7968   30.8584 C   0  0  0  0  0  0  0  0  0  0  0  0
   -4.4049  -86.0356   31.3124 C   0  0  0  0  0  0  0  0  0  0  0  0
   -5.3836  -87.1280   31.7157 C   0  0  0  0  0  0  0  0  0  0  0  0
   -4.6315  -88.3629   32.1682 C   0  0  0  0  0  0  0  0  0  0  0  0
    2.7441    0.7598    3.1408 H   0  0  0  0  0  0  0  0  0  0  0  0
    2.0178    1.3329    0.2416 H   0  0  0  0  0  0  0  0  0  0  0  0
    4.3301   -1.9385    1.7245 H   0  0  0  0  0  0  0  0  0  0  0  0
    4.3140   -2.5181    0.0718 H   0  0  0  0  0  0  0  0  0  0  0  0
    2.1176   -3.6350    0.4789 H   0  0  0  0  0  0  0  0  0  0  0  0
    2.1262   -3.0346    2.1450 H   0  0  0  0  0  0  0  0  0  0  0  0
    4.2040   -4.3789    2.6167 H   0  0  0  0  0  0  0  0  0  0  0  0
    4.1980   -4.9761    0.9582 H   0  0  0  0  0  0  0  0  0  0  0  0
    1.9403   -6.0015    1.3342 H   0  0  0  0  0  0  0  0  0  0  0  0
    1.9464   -5.4036    2.9951 H   0  0  0  0  0  0  0  0  0  0  0  0
    3.9922   -6.7641    3.4780 H   0  0  0  0  0  0  0  0  0  0  0  0
    3.9861   -7.3624    1.8161 H   0  0  0  0  0  0  0  0  0  0  0  0
    1.7123   -8.3448    2.1778 H   0  0  0  0  0  0  0  0  0  0  0  0
    1.7165   -7.7455    3.8382 H   0  0  0  0  0  0  0  0  0  0  0  0
    3.7661   -9.1036    4.3236 H   0  0  0  0  0  0  0  0  0  0  0  0
    3.7619   -9.7031    2.6629 H   0  0  0  0  0  0  0  0  0  0  0  0
    1.4835  -10.6769    3.0197 H   0  0  0  0  0  0  0  0  0  0  0  0
    1.4877  -10.0771    4.6811 H   0  0  0  0  0  0  0  0  0  0  0  0
    3.5341  -11.4333    5.1657 H   0  0  0  0  0  0  0  0  0  0  0  0
    3.5302  -12.0329    3.5043 H   0  0  0  0  0  0  0  0  0  0  0  0
    1.2541  -13.0080    3.8613 H   0  0  0  0  0  0  0  0  0  0  0  0
    1.2576  -12.4081    5.5229 H   0  0  0  0  0  0  0  0  0  0  0  0
    3.3073  -13.7601    6.0064 H   0  0  0  0  0  0  0  0  0  0  0  0
    3.3035  -14.3601    4.3450 H   0  0  0  0  0  0  0  0  0  0  0  0
    1.0253  -15.3330    4.7025 H   0  0  0  0  0  0  0  0  0  0  0  0
    1.0313  -14.7347    6.3646 H   0  0  0  0  0  0  0  0  0  0  0  0
    3.0809  -16.0877    6.8442 H   0  0  0  0  0  0  0  0  0  0  0  0
    3.0749  -16.6860    5.1821 H   0  0  0  0  0  0  0  0  0  0  0  0
    0.7975  -17.6587    5.5406 H   0  0  0  0  0  0  0  0  0  0  0  0
    0.8035  -17.0604    7.2026 H   0  0  0  0  0  0  0  0  0  0  0  0
    2.8531  -18.4132    7.6822 H   0  0  0  0  0  0  0  0  0  0  0  0
    2.8471  -19.0116    6.0201 H   0  0  0  0  0  0  0  0  0  0  0  0
    0.5697  -19.9842    6.3785 H   0  0  0  0  0  0  0  0  0  0  0  0
    0.5757  -19.3859    8.0406 H   0  0  0  0  0  0  0  0  0  0  0  0
    2.6254  -20.7386    8.5201 H   0  0  0  0  0  0  0  0  0  0  0  0
    2.6194  -21.3369    6.8581 H   0  0  0  0  0  0  0  0  0  0  0  0
    0.3419  -22.3095    7.2164 H   0  0  0  0  0  0  0  0  0  0  0  0
    0.3479  -21.7112    8.8785 H   0  0  0  0  0  0  0  0  0  0  0  0
    2.3976  -23.0640    9.3581 H   0  0  0  0  0  0  0  0  0  0  0  0
    2.3916  -23.6623    7.6960 H   0  0  0  0  0  0  0  0  0  0  0  0
    0.1142  -24.6349    8.0543 H   0  0  0  0  0  0  0  0  0  0  0  0
    0.1201  -24.0365    9.7164 H   0  0  0  0  0  0  0  0  0  0  0  0
    2.1699  -25.3893   10.1960 H   0  0  0  0  0  0  0  0  0  0  0  0
    2.1639  -25.9876    8.5339 H   0  0  0  0  0  0  0  0  0  0  0  0
   -0.1145  -26.9592    8.8927 H   0  0  0  0  0  0  0  0  0  0  0  0
   -0.1067  -26.3623   10.5553 H   0  0  0  0  0  0  0  0  0  0  0  0
    1.9431  -27.7163   11.0315 H   0  0  0  0  0  0  0  0  0  0  0  0
    1.9352  -28.3131    9.3690 H   0  0  0  0  0  0  0  0  0  0  0  0
   -0.3414  -29.2861    9.7283 H   0  0  0  0  0  0  0  0  0  0  0  0
   -0.3354  -28.6879   11.3903 H   0  0  0  0  0  0  0  0  0  0  0  0
    1.7133  -30.0409   11.8708 H   0  0  0  0  0  0  0  0  0  0  0  0
    1.7095  -30.6381   10.2083 H   0  0  0  0  0  0  0  0  0  0  0  0
   -0.5680  -31.6119   10.5634 H   0  0  0  0  0  0  0  0  0  0  0  0
   -0.5642  -31.0147   12.2258 H   0  0  0  0  0  0  0  0  0  0  0  0
    1.4866  -32.3666   12.7059 H   0  0  0  0  0  0  0  0  0  0  0  0
    1.4806  -32.9649   11.0438 H   0  0  0  0  0  0  0  0  0  0  0  0
   -0.7959  -33.9385   11.4017 H   0  0  0  0  0  0  0  0  0  0  0  0
   -0.7918  -33.3387   13.0633 H   0  0  0  0  0  0  0  0  0  0  0  0
    1.2579  -34.6902   13.5461 H   0  0  0  0  0  0  0  0  0  0  0  0
    1.2538  -35.2900   11.8846 H   0  0  0  0  0  0  0  0  0  0  0  0
   -1.0237  -36.2631   12.2415 H   0  0  0  0  0  0  0  0  0  0  0  0
   -1.0196  -35.6633   13.9031 H   0  0  0  0  0  0  0  0  0  0  0  0
    1.0302  -37.0148   14.3859 H   0  0  0  0  0  0  0  0  0  0  0  0
    1.0261  -37.6147   12.7244 H   0  0  0  0  0  0  0  0  0  0  0  0
   -1.2514  -38.5878   13.0814 H   0  0  0  0  0  0  0  0  0  0  0  0
   -1.2473  -37.9879   14.7429 H   0  0  0  0  0  0  0  0  0  0  0  0
    0.8024  -39.3395   15.2258 H   0  0  0  0  0  0  0  0  0  0  0  0
    0.7983  -39.9393   13.5642 H   0  0  0  0  0  0  0  0  0  0  0  0
   -1.4791  -40.9124   13.9212 H   0  0  0  0  0  0  0  0  0  0  0  0
   -1.4751  -40.3126   15.5827 H   0  0  0  0  0  0  0  0  0  0  0  0
    0.5736  -41.6644   16.0665 H   0  0  0  0  0  0  0  0  0  0  0  0
    0.5717  -42.2631   14.4045 H   0  0  0  0  0  0  0  0  0  0  0  0
   -1.7049  -43.2384   14.7577 H   0  0  0  0  0  0  0  0  0  0  0  0
   -1.7048  -42.6382   16.4191 H   0  0  0  0  0  0  0  0  0  0  0  0
    0.3449  -43.9880   16.9067 H   0  0  0  0  0  0  0  0  0  0  0  0
    0.3449  -44.5882   15.2453 H   0  0  0  0  0  0  0  0  0  0  0  0
   -1.9326  -45.5630   15.5975 H   0  0  0  0  0  0  0  0  0  0  0  0
   -1.9326  -44.9628   17.2589 H   0  0  0  0  0  0  0  0  0  0  0  0
    0.1172  -46.3126   17.7465 H   0  0  0  0  0  0  0  0  0  0  0  0
    0.1172  -46.9129   16.0851 H   0  0  0  0  0  0  0  0  0  0  0  0
   -2.1594  -47.8887   16.4369 H   0  0  0  0  0  0  0  0  0  0  0  0
   -2.1613  -47.2870   18.0977 H   0  0  0  0  0  0  0  0  0  0  0  0
   -0.1105  -48.6353   18.5878 H   0  0  0  0  0  0  0  0  0  0  0  0
   -0.1107  -49.2381   16.9273 H   0  0  0  0  0  0  0  0  0  0  0  0
   -2.3892  -50.2113   17.2818 H   0  0  0  0  0  0  0  0  0  0  0  0
   -2.3870  -49.6099   18.9428 H   0  0  0  0  0  0  0  0  0  0  0  0
   -0.3383  -50.9605   19.4299 H   0  0  0  0  0  0  0  0  0  0  0  0
   -0.3383  -51.5608   17.7685 H   0  0  0  0  0  0  0  0  0  0  0  0
   -2.6149  -52.5366   18.1203 H   0  0  0  0  0  0  0  0  0  0  0  0
   -2.6168  -51.9348   19.7811 H   0  0  0  0  0  0  0  0  0  0  0  0
   -0.5660  -53.2832   20.2712 H   0  0  0  0  0  0  0  0  0  0  0  0
   -0.5662  -53.8860   18.6107 H   0  0  0  0  0  0  0  0  0  0  0  0
   -2.8437  -54.8601   18.9648 H   0  0  0  0  0  0  0  0  0  0  0  0
   -2.8434  -54.2573   20.6252 H   0  0  0  0  0  0  0  0  0  0  0  0
   -0.7937  -55.6064   21.1147 H   0  0  0  0  0  0  0  0  0  0  0  0
   -0.7940  -56.2093   19.4543 H   0  0  0  0  0  0  0  0  0  0  0  0
   -3.0705  -57.1844   19.8080 H   0  0  0  0  0  0  0  0  0  0  0  0
   -3.0722  -56.5800   21.4679 H   0  0  0  0  0  0  0  0  0  0  0  0
   -1.0224  -57.9280   21.9607 H   0  0  0  0  0  0  0  0  0  0  0  0
   -1.0208  -58.5324   20.3008 H   0  0  0  0  0  0  0  0  0  0  0  0
   -3.2983  -59.5070   20.6535 H   0  0  0  0  0  0  0  0  0  0  0  0
   -3.2999  -58.9026   22.3133 H   0  0  0  0  0  0  0  0  0  0  0  0
   -1.2491  -60.2502   22.8053 H   0  0  0  0  0  0  0  0  0  0  0  0
   -1.2496  -60.8558   21.1458 H   0  0  0  0  0  0  0  0  0  0  0  0
   -3.5271  -61.8292   21.5018 H   0  0  0  0  0  0  0  0  0  0  0  0
   -3.5266  -61.2236   23.1612 H   0  0  0  0  0  0  0  0  0  0  0  0
   -1.4779  -62.5724   23.6535 H   0  0  0  0  0  0  0  0  0  0  0  0
   -1.4763  -63.1768   21.9937 H   0  0  0  0  0  0  0  0  0  0  0  0
   -3.7528  -64.1524   22.3460 H   0  0  0  0  0  0  0  0  0  0  0  0
   -3.7564  -63.5465   24.0053 H   0  0  0  0  0  0  0  0  0  0  0  0
   -1.7055  -64.8930   24.5005 H   0  0  0  0  0  0  0  0  0  0  0  0
   -1.7042  -65.5000   22.8416 H   0  0  0  0  0  0  0  0  0  0  0  0
   -3.9826  -66.4730   23.1966 H   0  0  0  0  0  0  0  0  0  0  0  0
   -3.9821  -65.8673   24.8560 H   0  0  0  0  0  0  0  0  0  0  0  0
   -1.9313  -67.2155   25.3465 H   0  0  0  0  0  0  0  0  0  0  0  0
   -1.9340  -67.8222   23.6875 H   0  0  0  0  0  0  0  0  0  0  0  0
   -4.2105  -68.7954   24.0463 H   0  0  0  0  0  0  0  0  0  0  0  0
   -4.2097  -68.1872   25.7048 H   0  0  0  0  0  0  0  0  0  0  0  0
   -2.1610  -69.5352   26.1990 H   0  0  0  0  0  0  0  0  0  0  0  0
   -2.1597  -70.1424   24.5401 H   0  0  0  0  0  0  0  0  0  0  0  0
   -4.4362  -71.1173   24.8943 H   0  0  0  0  0  0  0  0  0  0  0  0
   -4.4395  -70.5087   26.5526 H   0  0  0  0  0  0  0  0  0  0  0  0
   -2.3908  -71.8550   27.0515 H   0  0  0  0  0  0  0  0  0  0  0  0
   -2.3854  -72.4625   25.3928 H   0  0  0  0  0  0  0  0  0  0  0  0
   -4.6629  -73.4381   25.7426 H   0  0  0  0  0  0  0  0  0  0  0  0
   -4.6683  -72.8306   27.4014 H   0  0  0  0  0  0  0  0  0  0  0  0
   -2.6175  -74.1758   27.8998 H   0  0  0  0  0  0  0  0  0  0  0  0
   -2.6142  -74.7844   26.2415 H   0  0  0  0  0  0  0  0  0  0  0  0
   -4.8908  -75.7598   26.5943 H   0  0  0  0  0  0  0  0  0  0  0  0
   -4.8960  -75.1497   28.2520 H   0  0  0  0  0  0  0  0  0  0  0  0
   -2.8450  -76.4941   28.7524 H   0  0  0  0  0  0  0  0  0  0  0  0
   -2.8421  -77.1053   27.0950 H   0  0  0  0  0  0  0  0  0  0  0  0
   -5.1204  -78.0781   27.4505 H   0  0  0  0  0  0  0  0  0  0  0  0
   -5.1215  -77.4684   29.1084 H   0  0  0  0  0  0  0  0  0  0  0  0
   -3.0729  -78.8153   29.6060 H   0  0  0  0  0  0  0  0  0  0  0  0
   -3.0696  -79.4240   27.9476 H   0  0  0  0  0  0  0  0  0  0  0  0
   -5.3463  -80.3996   28.3012 H   0  0  0  0  0  0  0  0  0  0  0  0
   -5.3495  -79.7909   29.9597 H   0  0  0  0  0  0  0  0  0  0  0  0
   -3.3010  -81.1396   30.4577 H   0  0  0  0  0  0  0  0  0  0  0  0
   -3.2999  -81.7493   28.7998 H   0  0  0  0  0  0  0  0  0  0  0  0
   -5.5791  -82.7208   29.1565 H   0  0  0  0  0  0  0  0  0  0  0  0
   -5.5782  -82.1126   30.8149 H   0  0  0  0  0  0  0  0  0  0  0  0
   -3.5272  -83.4595   31.3076 H   0  0  0  0  0  0  0  0  0  0  0  0
   -3.5280  -84.0675   29.6497 H   0  0  0  0  0  0  0  0  0  0  0  0
   -5.8046  -85.0435   30.0083 H   0  0  0  0  0  0  0  0  0  0  0  0
   -5.8037  -84.4352   31.6671 H   0  0  0  0  0  0  0  0  0  0  0  0
   -3.7543  -85.7840   32.1592 H   0  0  0  0  0  0  0  0  0  0  0  0
   -3.7574  -86.3931   30.5020 H   0  0  0  0  0  0  0  0  0  0  0  0
   -6.0323  -87.3796   30.8685 H   0  0  0  0  0  0  0  0  0  0  0  0
   -6.0293  -86.7703   32.5262 H   0  0  0  0  0  0  0  0  0  0  0  0
   -3.9967  -88.7441   31.3620 H   0  0  0  0  0  0  0  0  0  0  0  0
   -5.3333  -89.1487   32.4583 H   0  0  0  0  0  0  0  0  0  0  0  0
   -3.9937  -88.1320   33.0274 H   0  0  0  0  0  0  0  0  0  0  0  0
  1  2  1  0  0  0  0
  1 80  1  0  0  0  0
  2  3  1  0  0  0  0
  2  4  1  0  0  0  0
  3  4  2  0  0  0  0
  3 81  1  0  0  0  0
  4  5  1  0  0  0  0
  5  6  1  0  0  0  0
  5 82  1  0  0  0  0
  5 83  1  0  0  0  0
  6  7  1  0  0  0  0
  6 84  1  0  0  0  0
  6 85  1  0  0  0  0
  7  8  1  0  0  0  0
  7 86  1  0  0  0  0
  7 87  1  0  0  0  0
  8  9  1  0  0  0  0
  8 88  1  0  0  0  0
  8 89  1  0  0  0  0
  9 10  1  0  0  0  0
  9 90  1  0  0  0  0
  9 91  1  0  0  0  0
 10 11  1  0  0  0  0
 10 92  1  0  0  0  0
 10 93  1  0  0  0  0
 11 12  1  0  0  0  0
 11 94  1  0  0  0  0
 11 95  1  0  0  0  0
 12 13  1  0  0  0  0
 12 96  1  0  0  0  0
 12 97  1  0  0  0  0
 13 14  1  0  0  0  0
 13 98  1  0  0  0  0
 13 99  1  0  0  0  0
 14 15  1  0  0  0  0
 14100  1  0  0  0  0
 14101  1  0  0  0  0
 15 16  1  0  0  0  0
 15102  1  0  0  0  0
 15103  1  0  0  0  0
 16 17  1  0  0  0  0
 16104  1  0  0  0  0
 16105  1  0  0  0  0
 17 18  1  0  0  0  0
 17106  1  0  0  0  0
 17107  1  0  0  0  0
 18 19  1  0  0  0  0
 18108  1  0  0  0  0
 18109  1  0  0  0  0
 19 20  1  0  0  0  0
 19110  1  0  0  0  0
 19111  1  0  0  0  0
 20 21  1  0  0  0  0
 20112  1  0  0  0  0
 20113  1  0  0  0  0
 21 22  1  0  0  0  0
 21114  1  0  0  0  0
 21115  1  0  0  0  0
 22 23  1  0  0  0  0
 22116  1  0  0  0  0
 22117  1  0  0  0  0
 23 24  1  0  0  0  0
 23118  1  0  0  0  0
 23119  1  0  0  0  0
 24 25  1  0  0  0  0
 24120  1  0  0  0  0
 24121  1  0  0  0  0
 25 26  1  0  0  0  0
 25122  1  0  0  0  0
 25123  1  0  0  0  0
 26 27  1  0  0  0  0
 26124  1  0  0  0  0
 26125  1  0  0  0  0
 27 28  1  0  0  0  0
 27126  1  0  0  0  0
 27127  1  0  0  0  0
 28 29  1  0  0  0  0
 28128  1  0  0  0  0
 28129  1  0  0  0  0
 29 30  1  0  0  0  0
 29130  1  0  0  0  0
 29131  1  0  0  0  0
 30 31  1  0  0  0  0
 30132  1  0  0  0  0
 30133  1  0  0  0  0
 31 32  1  0  0  0  0
 31134  1  0  0  0  0
 31135  1  0  0  0  0
 32 33  1  0  0  0  0
 32136  1  0  0  0  0
 32137  1  0  0  0  0
 33 34  1  0  0  0  0
 33138  1  0  0  0  0
 33139  1  0  0  0  0
 34 35  1  0  0  0  0
 34140  1  0  0  0  0
 34141  1  0  0  0  0
 35 36  1  0  0  0  0
 35142  1  0  0  0  0
 35143  1  0  0  0  0
 36 37  1  0  0  0  0
 36144  1  0  0  0  0
 36145  1  0  0  0  0
 37 38  1  0  0  0  0
 37146  1  0  0  0  0
 37147  1  0  0  0  0
 38 39  1  0  0  0  0
 38148  1  0  0  0  0
 38149  1  0  0  0  0
 39 40  1  0  0  0  0
 39150  1  0  0  0  0
 39151  1  0  0  0  0
 40 41  1  0  0  0  0
 40152  1  0  0  0  0
 40153  1  0  0  0  0
 41 42  1  0  0  0  0
 41154  1  0  0  0  0
 41155  1  0  0  0  0
 42 43  1  0  0  0  0
 42156  1  0  0  0  0
 42157  1  0  0  0  0
 43 44  1  0  0  0  0
 43158  1  0  0  0  0
 43159  1  0  0  0  0
 44 45  1  0  0  0  0
 44160  1  0  0  0  0
 44161  1  0  0  0  0
 45 46  1  0  0  0  0
 45162  1  0  0  0  0
 45163  1  0  0  0  0
 46 47  1  0  0  0  0
 46164  1  0  0  0  0
 46165  1  0  0  0  0
 47 48  1  0  0  0  0
 47166  1  0  0  0  0
 47167  1  0  0  0  0
 48 49  1  0  0  0  0
 48168  1  0  0  0  0
 48169  1  0  0  0  0
 49 50  1  0  0  0  0
 49170  1  0  0  0  0
 49171  1  0  0  0  0
 50 51  1  0  0  0  0
 50172  1  0  0  0  0
 50173  1  0  0  0  0
 51 52  1  0  0  0  0
 51174  1  0  0  0  0
 51175  1  0  0  0  0
 52 53  1  0  0  0  0
 52176  1  0  0  0  0
 52177  1  0  0  0  0
 53 54  1  0  0  0  0
 53178  1  0  0  0  0
 53179  1  0  0  0  0
 54 55  1  0  0  0  0
 54180  1  0  0  0  0
 54181  1  0  0  0  0
 55 56  1  0  0  0  0
 55182  1  0  0  0  0
 55183  1  0  0  0  0
 56 57  1  0  0  0  0
 56184  1  0  0  0  0
 56185  1  0  0  0  0
 57 58  1  0  0  0  0
 57186  1  0  0  0  0
 57187  1  0  0  0  0
 58 59  1  0  0  0  0
 58188  1  0  0  0  0
 58189  1  0  0  0  0
 59 60  1  0  0  0  0
 59190  1  0  0  0  0
 59191  1  0  0  0  0
 60 61  1  0  0  0  0
 60192  1  0  0  0  0
 60193  1  0  0  0  0
 61 62  1  0  0  0  0
 61194  1  0  0  0  0
 61195  1  0  0  0  0
 62 63  1  0  0  0  0
 62196  1  0  0  0  0
 62197  1  0  0  0  0
 63 64  1  0  0  0  0
 63198  1  0  0  0  0
 63199  1  0  0  0  0
 64 65  1  0  0  0  0
 64200  1  0  0  0  0
 64201  1  0  0  0  0
 65 66  1  0  0  0  0
 65202  1  0  0  0  0
 65203  1  0  0  0  0
 66 67  1  0  0  0  0
 66204  1  0  0  0  0
 66205  1  0  0  0  0
 67 68  1  0  0  0  0
 67206  1  0  0  0  0
 67207  1  0  0  0  0
 68 69  1  0  0  0  0
 68208  1  0  0  0  0
 68209  1  0  0  0  0
 69 70  1  0  0  0  0
 69210  1  0  0  0  0
 69211  1  0  0  0  0
 70 71  1  0  0  0  0
 70212  1  0  0  0  0
 70213  1  0  0  0  0
 71 72  1  0  0  0  0
 71214  1  0  0  0  0
 71215  1  0  0  0  0
 72 73  1  0  0  0  0
 72216  1  0  0  0  0
 72217  1  0  0  0  0
 73 74  1  0  0  0  0
 73218  1  0  0  0  0
 73219  1  0  0  0  0
 74 75  1  0  0  0  0
 74220  1  0  0  0  0
 74221  1  0  0  0  0
 75 76  1  0  0  0  0
 75222  1  0  0  0  0
 75223  1  0  0  0  0
 76 77  1  0  0  0  0
 76224  1  0  0  0  0
 76225  1  0  0  0  0
 77 78  1  0  0  0  0
 77226  1  0  0  0  0
 77227  1  0  0  0  0
 78 79  1  0  0  0  0
 78228  1  0  0  0  0
 78229  1  0  0  0  0
 79230  1  0  0  0  0
 79231  1  0  0  0  0
 79232  1  0  0  0  0
M  END
$$$$
