
 OpenBabel04232216463D

 49 50  0  0  0  0  0  0  0  0999 V2000
    2.0245   -1.2197    5.2128 C   0  0  0  0  0  0  0  0  0  0  0  0
    3.1149   -1.3334    4.2477 C   0  0  0  0  0  0  0  0  0  0  0  0
    3.0394   -1.7157    2.8720 C   0  0  0  0  0  0  0  0  0  0  0  0
    4.3776   -1.5558    2.8197 C   0  0  0  0  0  0  0  0  0  0  0  0
    5.3493   -1.7396    1.6665 C   0  0  0  0  0  0  0  0  0  0  0  0
    6.8394   -1.5094    1.7662 C   0  0  0  0  0  0  0  0  0  0  0  0
    7.5831   -2.4940    2.6700 C   0  0  0  0  0  0  0  0  0  0  0  0
    9.1014   -2.3498    2.4924 C   0  0  0  0  0  0  0  0  0  0  0  0
    9.8780   -3.2942    3.4125 C   0  0  0  0  0  0  0  0  0  0  0  0
   11.3914   -3.1263    3.2371 C   0  0  0  0  0  0  0  0  0  0  0  0
   12.1688   -4.0584    4.1679 C   0  0  0  0  0  0  0  0  0  0  0  0
   13.6822   -3.8987    4.0006 C   0  0  0  0  0  0  0  0  0  0  0  0
   14.4559   -4.8302    4.9206 C   0  0  0  0  0  0  0  0  0  0  0  0
   13.8931   -5.5928    5.7078 O   0  0  0  0  0  0  0  0  0  0  0  0
   15.9442   -4.8063    4.8529 C   0  0  0  0  0  0  0  0  0  0  0  0
   16.7726   -3.9520    4.0311 C   0  0  0  0  0  0  0  0  0  0  0  0
   18.0626   -4.2374    4.2682 C   0  0  0  0  0  0  0  0  0  0  0  0
   19.1226   -3.6217    3.6716 N   0  0  0  0  0  0  0  0  0  0  0  0
   20.4491   -3.8806    3.8900 C   0  0  0  0  0  0  0  0  0  0  0  0
   21.3472   -3.2790    3.3113 O   0  0  0  0  0  0  0  0  0  0  0  0
   18.1682   -5.3365    5.2946 C   0  0  0  0  0  0  0  0  0  0  0  0
   16.7250   -5.6150    5.5885 C   0  0  0  0  0  0  0  0  0  0  0  0
    4.3972   -1.1762    4.1965 N   0  0  0  0  0  0  0  0  0  0  0  0
    1.0756   -1.4765    4.7260 H   0  0  0  0  0  0  0  0  0  0  0  0
    1.9502   -0.1982    5.5965 H   0  0  0  0  0  0  0  0  0  0  0  0
    2.1779   -1.9088    6.0500 H   0  0  0  0  0  0  0  0  0  0  0  0
    2.2943   -2.0008    2.1392 H   0  0  0  0  0  0  0  0  0  0  0  0
    4.9566   -1.1080    0.8615 H   0  0  0  0  0  0  0  0  0  0  0  0
    5.1511   -2.7377    1.2589 H   0  0  0  0  0  0  0  0  0  0  0  0
    7.0615   -0.4776    2.0635 H   0  0  0  0  0  0  0  0  0  0  0  0
    7.2358   -1.6274    0.7483 H   0  0  0  0  0  0  0  0  0  0  0  0
    7.2886   -3.5210    2.4220 H   0  0  0  0  0  0  0  0  0  0  0  0
    7.3090   -2.3147    3.7143 H   0  0  0  0  0  0  0  0  0  0  0  0
    9.3988   -1.3136    2.6958 H   0  0  0  0  0  0  0  0  0  0  0  0
    9.3707   -2.5603    1.4491 H   0  0  0  0  0  0  0  0  0  0  0  0
    9.5959   -4.3316    3.1965 H   0  0  0  0  0  0  0  0  0  0  0  0
    9.6048   -3.0940    4.4558 H   0  0  0  0  0  0  0  0  0  0  0  0
   11.6714   -2.0862    3.4435 H   0  0  0  0  0  0  0  0  0  0  0  0
   11.6660   -3.3348    2.1960 H   0  0  0  0  0  0  0  0  0  0  0  0
   11.8849   -5.0989    3.9665 H   0  0  0  0  0  0  0  0  0  0  0  0
   11.8910   -3.8518    5.2092 H   0  0  0  0  0  0  0  0  0  0  0  0
   13.9693   -2.8666    4.2314 H   0  0  0  0  0  0  0  0  0  0  0  0
   13.9612   -4.1245    2.9653 H   0  0  0  0  0  0  0  0  0  0  0  0
   16.3993   -3.2088    3.3445 H   0  0  0  0  0  0  0  0  0  0  0  0
   18.9547   -2.8891    2.9906 H   0  0  0  0  0  0  0  0  0  0  0  0
   20.6496   -4.6728    4.6275 H   0  0  0  0  0  0  0  0  0  0  0  0
   18.6889   -4.9991    6.1961 H   0  0  0  0  0  0  0  0  0  0  0  0
   18.6601   -6.2248    4.8865 H   0  0  0  0  0  0  0  0  0  0  0  0
   16.3725   -6.3562    6.2922 H   0  0  0  0  0  0  0  0  0  0  0  0
  1  2  1  0  0  0  0
  1 24  1  0  0  0  0
  1 25  1  0  0  0  0
  1 26  1  0  0  0  0
  2  3  1  0  0  0  0
  2 23  2  0  0  0  0
  3  4  2  0  0  0  0
  3 27  1  0  0  0  0
  4  5  1  0  0  0  0
  4 23  1  0  0  0  0
  5  6  1  0  0  0  0
  5 28  1  0  0  0  0
  5 29  1  0  0  0  0
  6  7  1  0  0  0  0
  6 30  1  0  0  0  0
  6 31  1  0  0  0  0
  7  8  1  0  0  0  0
  7 32  1  0  0  0  0
  7 33  1  0  0  0  0
  8  9  1  0  0  0  0
  8 34  1  0  0  0  0
  8 35  1  0  0  0  0
  9 10  1  0  0  0  0
  9 36  1  0  0  0  0
  9 37  1  0  0  0  0
 10 11  1  0  0  0  0
 10 38  1  0  0  0  0
 10 39  1  0  0  0  0
 11 12  1  0  0  0  0
 11 40  1  0  0  0  0
 11 41  1  0  0  0  0
 12 13  1  0  0  0  0
 12 42  1  0  0  0  0
 12 43  1  0  0  0  0
 13 14  2  0  0  0  0
 13 15  1  0  0  0  0
 15 16  1  0  0  0  0
 15 22  2  0  0  0  0
 16 17  2  0  0  0  0
 16 44  1  0  0  0  0
 17 18  1  0  0  0  0
 17 21  1  0  0  0  0
 18 19  1  0  0  0  0
 18 45  1  0  0  0  0
 19 20  2  0  0  0  0
 19 46  1  0  0  0  0
 21 22  1  0  0  0  0
 21 47  1  0  0  0  0
 21 48  1  0  0  0  0
 22 49  1  0  0  0  0
M  END
$$$$
