
 OpenBabel04232216463D

 66 67  0  0  1  0  0  0  0  0999 V2000
    6.7548    1.7988    5.5715 C   0  0  0  0  0  0  0  0  0  0  0  0
    6.5696    0.6775    6.8073 C   0  0  0  0  0  0  0  0  0  0  0  0
    6.5923   -0.5269    6.0629 C   0  0  0  0  0  0  0  0  0  0  0  0
    6.0210   -0.6240    4.6717 C   0  0  0  0  0  0  0  0  0  0  0  0
    6.5499   -0.7751    3.3714 C   0  0  3  0  0  0  0  0  0  0  0  0
    6.8847   -0.2649    1.9595 C   0  0  0  0  0  0  0  0  0  0  0  0
    8.4033    0.0680    1.5954 C   0  0  0  0  0  0  0  0  0  0  0  0
    9.4929   -1.0569    1.5136 C   0  0  0  0  0  0  0  0  0  0  0  0
   10.9670   -0.5912    1.2418 C   0  0  0  0  0  0  0  0  0  0  0  0
   11.9837   -1.7422    1.3661 C   0  0  0  0  0  0  0  0  0  0  0  0
    4.9817   -0.4560    3.8894 C   0  0  0  0  0  0  0  0  0  0  0  0
    3.9723    0.3874    4.6336 C   0  0  0  0  0  0  0  0  0  0  0  0
    3.8346    1.6344    5.2649 C   0  0  0  0  0  0  0  0  0  0  0  0
    3.3502    1.5677    6.6028 C   0  0  0  0  0  0  0  0  0  0  0  0
    2.9589    2.7105    7.1617 N   0  0  0  0  0  0  0  0  0  0  0  0
    3.0488    2.6762    8.5229 N   0  0  0  0  0  0  0  0  0  0  0  0
    4.0957    3.2849    8.8183 N   0  0  0  0  0  0  0  0  0  0  0  0
    3.9514    3.7850   10.0718 N   0  0  0  0  0  0  0  0  0  0  0  0
    4.8466    3.4270   10.8407 N   0  0  0  0  0  0  0  0  0  0  0  0
    4.3865    3.4717   12.1129 N   0  0  0  0  0  0  0  0  0  0  0  0
    3.0546    2.9125   12.4628 C   0  0  0  0  0  0  0  0  0  0  0  0
    2.1502    4.0989   12.3747 C   0  0  0  0  0  0  0  0  0  0  0  0
    0.7719    4.0419   12.9662 C   0  0  0  0  0  0  0  0  0  0  0  0
    0.2563    5.4704   12.7794 C   0  0  0  0  0  0  0  0  0  0  0  0
    5.1684    4.1909   12.9657 N   0  0  0  0  0  0  0  0  0  0  0  0
    5.0333    3.8501   14.2077 C   0  0  0  0  0  0  0  0  0  0  0  0
    6.0179    2.7885   14.6201 C   0  0  0  0  0  0  0  0  0  0  0  0
    5.5768    1.6640   13.9753 C   0  0  0  0  0  0  0  0  0  0  0  0
    6.0347    0.9492   12.5544 C   0  0  0  0  0  0  0  0  0  0  0  0
    5.5493    0.7775   11.2064 C   0  0  0  0  0  0  0  0  0  0  0  0
    6.2592    0.8965    9.5048 C   0  0  0  0  0  0  0  0  0  0  0  0
    5.8071    0.7177    8.2167 N   0  0  0  0  0  0  0  0  0  0  0  0
    7.7074    1.6366    5.0185 H   0  0  0  0  0  0  0  0  0  0  0  0
    6.5220    2.8560    5.6569 H   0  0  0  0  0  0  0  0  0  0  0  0
    6.1410    1.5702    4.6718 H   0  0  0  0  0  0  0  0  0  0  0  0
    7.6543   -0.6626    5.7644 H   0  0  0  0  0  0  0  0  0  0  0  0
    7.3663   -1.4267    3.6526 H   0  0  0  0  0  0  0  0  0  0  0  0
    6.2392    0.5624    1.6809 H   0  0  0  0  0  0  0  0  0  0  0  0
    6.5991   -1.0997    1.2515 H   0  0  0  0  0  0  0  0  0  0  0  0
    8.7449    0.8609    2.2605 H   0  0  0  0  0  0  0  0  0  0  0  0
    8.3826    0.5131    0.5786 H   0  0  0  0  0  0  0  0  0  0  0  0
    9.2390   -1.7601    0.7091 H   0  0  0  0  0  0  0  0  0  0  0  0
    9.4944   -1.6127    2.4531 H   0  0  0  0  0  0  0  0  0  0  0  0
   11.2623    0.1916    1.9500 H   0  0  0  0  0  0  0  0  0  0  0  0
   11.0727   -0.1639    0.2350 H   0  0  0  0  0  0  0  0  0  0  0  0
   11.9330   -2.2091    2.3551 H   0  0  0  0  0  0  0  0  0  0  0  0
   13.0147   -1.3861    1.2304 H   0  0  0  0  0  0  0  0  0  0  0  0
   11.8103   -2.5179    0.6123 H   0  0  0  0  0  0  0  0  0  0  0  0
    3.0074   -0.1310    4.6473 H   0  0  0  0  0  0  0  0  0  0  0  0
    4.5021    2.4668    5.1868 H   0  0  0  0  0  0  0  0  0  0  0  0
    3.5483    0.6458    7.2328 H   0  0  0  0  0  0  0  0  0  0  0  0
    3.0511    2.4482   13.4556 H   0  0  0  0  0  0  0  0  0  0  0  0
    2.7779    2.1105   11.7650 H   0  0  0  0  0  0  0  0  0  0  0  0
    2.0514    4.3594   11.3179 H   0  0  0  0  0  0  0  0  0  0  0  0
    2.6753    4.9330   12.8560 H   0  0  0  0  0  0  0  0  0  0  0  0
    0.7978    3.7723   14.0270 H   0  0  0  0  0  0  0  0  0  0  0  0
    0.1420    3.3206   12.4363 H   0  0  0  0  0  0  0  0  0  0  0  0
    0.9200    6.1688   13.3148 H   0  0  0  0  0  0  0  0  0  0  0  0
   -0.7526    5.5972   13.1272 H   0  0  0  0  0  0  0  0  0  0  0  0
    0.3195    5.7449   11.7143 H   0  0  0  0  0  0  0  0  0  0  0  0
    4.0623    3.8864   14.7399 H   0  0  0  0  0  0  0  0  0  0  0  0
    6.9766    3.2901   14.5054 H   0  0  0  0  0  0  0  0  0  0  0  0
    4.7515    1.2107   14.5602 H   0  0  0  0  0  0  0  0  0  0  0  0
    5.4949    0.0968   13.0669 H   0  0  0  0  0  0  0  0  0  0  0  0
    4.5182    0.3996   11.1312 H   0  0  0  0  0  0  0  0  0  0  0  0
    7.3043    1.2025    9.6464 H   0  0  0  0  0  0  0  0  0  0  0  0
  1  2  1  0  0  0  0
  1 33  1  0  0  0  0
  1 34  1  0  0  0  0
  1 35  1  0  0  0  0
  2  3  2  3  0  0  0
  2 32  1  0  0  0  0
  3  4  1  0  0  0  0
  3 36  1  0  0  0  0
  4  5  1  0  0  0  0
  4 11  2  0  0  0  0
  5  6  1  0  0  0  0
  5 11  1  0  0  0  0
  5 37  1  0  0  0  0
  6  7  1  0  0  0  0
  6 38  1  0  0  0  0
  6 39  1  0  0  0  0
  7  8  1  0  0  0  0
  7 40  1  0  0  0  0
  7 41  1  0  0  0  0
  8  9  1  0  0  0  0
  8 42  1  0  0  0  0
  8 43  1  0  0  0  0
  9 10  1  0  0  0  0
  9 44  1  0  0  0  0
  9 45  1  0  0  0  0
 10 46  1  0  0  0  0
 10 47  1  0  0  0  0
 10 48  1  0  0  0  0
 11 12  1  0  0  0  0
 12 13  2  3  0  0  0
 12 49  1  0  0  0  0
 13 14  1  0  0  0  0
 13 50  1  0  0  0  0
 14 15  2  3  0  0  0
 14 51  1  0  0  0  0
 15 16  1  0  0  0  0
 16 17  2  3  0  0  0
 17 18  1  0  0  0  0
 18 19  2  3  0  0  0
 19 20  1  0  0  0  0
 20 21  1  0  0  0  0
 20 25  1  0  0  0  0
 21 22  1  0  0  0  0
 21 52  1  0  0  0  0
 21 53  1  0  0  0  0
 22 23  1  0  0  0  0
 22 54  1  0  0  0  0
 22 55  1  0  0  0  0
 23 24  1  0  0  0  0
 23 56  1  0  0  0  0
 23 57  1  0  0  0  0
 24 58  1  0  0  0  0
 24 59  1  0  0  0  0
 24 60  1  0  0  0  0
 25 26  2  3  0  0  0
 26 27  1  0  0  0  0
 26 61  1  0  0  0  0
 27 28  2  3  0  0  0
 27 62  1  0  0  0  0
 28 29  1  0  0  0  0
 28 63  1  0  0  0  0
 29 30  2  3  0  0  0
 29 64  1  0  0  0  0
 30 31  1  0  0  0  0
 30 65  1  0  0  0  0
 31 32  2  3  0  0  0
 31 66  1  0  0  0  0
M  END
$$$$
