
 OpenBabel04232216443D

 45 46  0  0  0  0  0  0  0  0999 V2000
    4.1965    1.6131    0.3488 C   0  0  0  0  0  0  0  0  0  0  0  0
    5.2106    1.3042    1.4487 C   0  0  0  0  0  0  0  0  0  0  0  0
    4.6214    0.6972    2.5013 C   0  0  0  0  0  0  0  0  0  0  0  0
    4.8776   -0.7681    2.4305 C   0  0  0  0  0  0  0  0  0  0  0  0
    4.2959   -1.5097    1.6545 O   0  0  0  0  0  0  0  0  0  0  0  0
    5.8200   -1.2112    3.4451 C   0  0  0  0  0  0  0  0  0  0  0  0
    7.0913   -1.5153    3.1332 C   0  0  0  0  0  0  0  0  0  0  0  0
    7.6887   -1.5920    1.7482 C   0  0  0  0  0  0  0  0  0  0  0  0
    8.0071   -1.4174    4.2456 C   0  0  0  0  0  0  0  0  0  0  0  0
    9.3254   -1.6723    4.1969 C   0  0  0  0  0  0  0  0  0  0  0  0
   10.1151   -0.6851    4.9157 C   0  0  0  0  0  0  0  0  0  0  0  0
   10.3380    0.3876    4.1193 C   0  0  0  0  0  0  0  0  0  0  0  0
    9.4372    1.5416    4.2856 C   0  0  0  0  0  0  0  0  0  0  0  0
    9.8118    2.2307    5.6283 C   0  0  0  0  0  0  0  0  0  0  0  0
    8.6678    2.0909    3.2893 C   0  0  0  0  0  0  0  0  0  0  0  0
    7.6786    1.6941    2.1704 C   0  0  0  0  0  0  0  0  0  0  0  0
    6.7254    1.3231    1.2096 C   0  0  0  0  0  0  0  0  0  0  0  0
    7.1131    1.3533   -0.3150 C   0  0  0  0  0  0  0  0  0  0  0  0
    7.0345    0.3344   -1.4612 C   0  0  0  0  0  0  0  0  0  0  0  0
    6.7377   -0.9922   -1.7669 C   0  0  0  0  0  0  0  0  0  0  0  0
    6.9936   -1.1888   -3.1693 C   0  0  0  0  0  0  0  0  0  0  0  0
    7.3875    0.0290   -3.6546 C   0  0  0  0  0  0  0  0  0  0  0  0
    7.4107    0.9387   -2.6541 O   0  0  0  0  0  0  0  0  0  0  0  0
    3.1740    1.7099    0.7483 H   0  0  0  0  0  0  0  0  0  0  0  0
    4.1522    0.7642   -0.3451 H   0  0  0  0  0  0  0  0  0  0  0  0
    4.3911    2.5308   -0.2027 H   0  0  0  0  0  0  0  0  0  0  0  0
    3.5479    0.8223    2.6711 H   0  0  0  0  0  0  0  0  0  0  0  0
    5.4958   -1.0250    4.4633 H   0  0  0  0  0  0  0  0  0  0  0  0
    6.9379   -1.4805    0.9681 H   0  0  0  0  0  0  0  0  0  0  0  0
    8.2011   -2.5402    1.5823 H   0  0  0  0  0  0  0  0  0  0  0  0
    8.4348   -0.8007    1.5882 H   0  0  0  0  0  0  0  0  0  0  0  0
    7.6356   -0.7659    5.0465 H   0  0  0  0  0  0  0  0  0  0  0  0
    9.7974   -2.1856    3.3674 H   0  0  0  0  0  0  0  0  0  0  0  0
    9.7233   -0.5297    5.9278 H   0  0  0  0  0  0  0  0  0  0  0  0
   10.6900    0.2399    3.1043 H   0  0  0  0  0  0  0  0  0  0  0  0
    8.9440    2.3227    6.2925 H   0  0  0  0  0  0  0  0  0  0  0  0
   10.3000    3.2035    5.5093 H   0  0  0  0  0  0  0  0  0  0  0  0
   10.5370    1.6385    6.2202 H   0  0  0  0  0  0  0  0  0  0  0  0
    9.4158    2.5260    2.6051 H   0  0  0  0  0  0  0  0  0  0  0  0
    6.9333    1.8782    2.9861 H   0  0  0  0  0  0  0  0  0  0  0  0
    8.1510    1.7048   -0.3609 H   0  0  0  0  0  0  0  0  0  0  0  0
    6.5240    2.1893   -0.7259 H   0  0  0  0  0  0  0  0  0  0  0  0
    6.3920   -1.7797   -1.1120 H   0  0  0  0  0  0  0  0  0  0  0  0
    6.9024   -2.0951   -3.7606 H   0  0  0  0  0  0  0  0  0  0  0  0
    7.6772    0.3935   -4.6331 H   0  0  0  0  0  0  0  0  0  0  0  0
  1  2  1  0  0  0  0
  1 24  1  0  0  0  0
  1 25  1  0  0  0  0
  1 26  1  0  0  0  0
  2  3  2  3  0  0  0
  2 17  1  0  0  0  0
  3  4  1  0  0  0  0
  3 27  1  0  0  0  0
  4  5  2  0  0  0  0
  4  6  1  0  0  0  0
  6  7  2  3  0  0  0
  6 28  1  0  0  0  0
  7  8  1  0  0  0  0
  7  9  1  0  0  0  0
  8 29  1  0  0  0  0
  8 30  1  0  0  0  0
  8 31  1  0  0  0  0
  9 10  2  3  0  0  0
  9 32  1  0  0  0  0
 10 11  1  0  0  0  0
 10 33  1  0  0  0  0
 11 12  2  3  0  0  0
 11 34  1  0  0  0  0
 12 13  1  0  0  0  0
 12 35  1  0  0  0  0
 13 14  1  0  0  0  0
 13 15  2  3  0  0  0
 14 36  1  0  0  0  0
 14 37  1  0  0  0  0
 14 38  1  0  0  0  0
 15 16  1  0  0  0  0
 15 39  1  0  0  0  0
 16 17  2  3  0  0  0
 16 40  1  0  0  0  0
 17 18  1  0  0  0  0
 18 19  1  0  0  0  0
 18 41  1  0  0  0  0
 18 42  1  0  0  0  0
 19 20  2  0  0  0  0
 19 23  1  0  0  0  0
 20 21  1  0  0  0  0
 20 43  1  0  0  0  0
 21 22  2  0  0  0  0
 21 44  1  0  0  0  0
 22 23  1  0  0  0  0
 22 45  1  0  0  0  0
M  END
$$$$
