
 OpenBabel04232216573D

119118  0  0  0  0  0  0  0  0999 V2000
   22.4011   13.8463    3.9423 C   0  0  0  0  0  0  0  0  0  0  0  0
   21.6172   12.2335    3.7324 S   0  0  0  0  0  0  0  0  0  0  0  0
   22.3565   11.3475    5.1432 C   0  0  0  0  0  0  0  0  0  0  0  0
   21.8101    9.9221    5.1436 C   0  0  0  0  0  0  0  0  0  0  0  0
   22.3726    9.0966    6.2991 C   0  0  0  0  0  0  0  0  0  0  0  0
   21.8033    7.6767    6.2605 C   0  0  0  0  0  0  0  0  0  0  0  0
   22.3563    6.8421    7.4063 C   0  0  0  0  0  0  0  0  0  0  0  0
   21.7836    5.4350    7.3677 C   0  0  0  0  0  0  0  0  0  0  0  0
   22.3270    4.5968    8.5119 C   0  0  0  0  0  0  0  0  0  0  0  0
   21.7704    3.2059    8.4818 C   0  0  0  0  0  0  0  0  0  0  0  0
   22.3256    2.3628    9.6249 C   0  0  0  0  0  0  0  0  0  0  0  0
   21.7718    0.9663    9.5888 C   0  0  0  0  0  0  0  0  0  0  0  0
   22.3112    0.1404   10.7488 C   0  0  0  0  0  0  0  0  0  0  0  0
   21.7456   -1.2720   10.7166 C   0  0  0  0  0  0  0  0  0  0  0  0
   22.2980   -2.0996   11.8595 C   0  0  0  0  0  0  0  0  0  0  0  0
   21.7316   -3.5179   11.8432 C   0  0  0  0  0  0  0  0  0  0  0  0
   22.2807   -4.3616   12.9919 C   0  0  0  0  0  0  0  0  0  0  0  0
   21.7210   -5.7830   12.9738 C   0  0  0  0  0  0  0  0  0  0  0  0
   22.2588   -6.6426   14.1010 C   0  0  0  0  0  0  0  0  0  0  0  0
   21.5965   -8.3500   14.0643 S   0  0  0  0  0  0  0  0  0  0  0  0
   22.1979   -9.1464   12.2655 S   0  0  0  0  0  0  0  0  0  0  0  0
   24.2595   -9.1406   12.2631 S   0  0  0  0  0  0  0  0  0  0  0  0
   24.9168  -10.3707   13.7877 S   0  0  0  0  0  0  0  0  0  0  0  0
   27.0029  -10.3155   13.7655 S   0  0  0  0  0  0  0  0  0  0  0  0
   27.6862  -11.5078   15.3452 S   0  0  0  0  0  0  0  0  0  0  0  0
   29.7858  -11.4911   15.3221 S   0  0  0  0  0  0  0  0  0  0  0  0
   30.4720  -12.6883   16.9089 S   0  0  0  0  0  0  0  0  0  0  0  0
   32.5763  -12.6773   16.8943 S   0  0  0  0  0  0  0  0  0  0  0  0
   33.2629  -13.8766   18.4837 S   0  0  0  0  0  0  0  0  0  0  0  0
   35.3698  -13.8677   18.4719 S   0  0  0  0  0  0  0  0  0  0  0  0
   36.0584  -15.0677   20.0621 S   0  0  0  0  0  0  0  0  0  0  0  0
   38.1667  -15.0592   20.0509 S   0  0  0  0  0  0  0  0  0  0  0  0
   38.8566  -16.2595   21.6415 S   0  0  0  0  0  0  0  0  0  0  0  0
   40.9656  -16.2513   21.6307 S   0  0  0  0  0  0  0  0  0  0  0  0
   41.6560  -17.4518   23.2215 S   0  0  0  0  0  0  0  0  0  0  0  0
   43.7652  -17.4437   23.2109 S   0  0  0  0  0  0  0  0  0  0  0  0
   44.4557  -18.6443   24.8018 S   0  0  0  0  0  0  0  0  0  0  0  0
   46.5650  -18.6363   24.7912 S   0  0  0  0  0  0  0  0  0  0  0  0
   47.2556  -19.8368   26.3822 S   0  0  0  0  0  0  0  0  0  0  0  0
   49.3650  -19.8288   26.3716 S   0  0  0  0  0  0  0  0  0  0  0  0
   50.0556  -21.0294   27.9626 S   0  0  0  0  0  0  0  0  0  0  0  0
   52.1650  -21.0214   27.9520 S   0  0  0  0  0  0  0  0  0  0  0  0
   52.8556  -22.2220   29.5430 S   0  0  0  0  0  0  0  0  0  0  0  0
   54.9650  -22.2140   29.5325 S   0  0  0  0  0  0  0  0  0  0  0  0
   55.6556  -23.4146   31.1235 S   0  0  0  0  0  0  0  0  0  0  0  0
   57.7650  -23.4066   31.1129 S   0  0  0  0  0  0  0  0  0  0  0  0
   58.4556  -24.6072   32.7039 S   0  0  0  0  0  0  0  0  0  0  0  0
   60.5650  -24.5992   32.6933 S   0  0  0  0  0  0  0  0  0  0  0  0
   61.2556  -25.7997   34.2843 S   0  0  0  0  0  0  0  0  0  0  0  0
   63.3650  -25.7918   34.2738 S   0  0  0  0  0  0  0  0  0  0  0  0
   64.0556  -26.9923   35.8648 S   0  0  0  0  0  0  0  0  0  0  0  0
   66.1649  -26.9843   35.8542 S   0  0  0  0  0  0  0  0  0  0  0  0
   66.8556  -28.1849   37.4452 S   0  0  0  0  0  0  0  0  0  0  0  0
   68.9649  -28.1769   37.4346 S   0  0  0  0  0  0  0  0  0  0  0  0
   69.6556  -29.3775   39.0256 S   0  0  0  0  0  0  0  0  0  0  0  0
   71.7649  -29.3695   39.0150 S   0  0  0  0  0  0  0  0  0  0  0  0
   72.4556  -30.5701   40.6060 S   0  0  0  0  0  0  0  0  0  0  0  0
   74.5649  -30.5621   40.5955 S   0  0  0  0  0  0  0  0  0  0  0  0
   75.2555  -31.7627   42.1865 S   0  0  0  0  0  0  0  0  0  0  0  0
   77.3649  -31.7547   42.1759 S   0  0  0  0  0  0  0  0  0  0  0  0
   78.0555  -32.9552   43.7669 S   0  0  0  0  0  0  0  0  0  0  0  0
   80.1649  -32.9473   43.7563 S   0  0  0  0  0  0  0  0  0  0  0  0
   80.8555  -34.1478   45.3473 S   0  0  0  0  0  0  0  0  0  0  0  0
   82.9648  -34.1398   45.3367 S   0  0  0  0  0  0  0  0  0  0  0  0
   83.6553  -35.3403   46.9276 S   0  0  0  0  0  0  0  0  0  0  0  0
   85.7645  -35.3323   46.9169 S   0  0  0  0  0  0  0  0  0  0  0  0
   86.4547  -36.5327   48.5077 S   0  0  0  0  0  0  0  0  0  0  0  0
   88.5635  -36.5244   48.4968 S   0  0  0  0  0  0  0  0  0  0  0  0
   89.2530  -37.7246   50.0873 S   0  0  0  0  0  0  0  0  0  0  0  0
   91.3608  -37.7158   50.0757 S   0  0  0  0  0  0  0  0  0  0  0  0
   92.0485  -38.9154   51.6653 S   0  0  0  0  0  0  0  0  0  0  0  0
   94.1539  -38.9055   51.6522 S   0  0  0  0  0  0  0  0  0  0  0  0
   94.8381  -40.1037   53.2401 S   0  0  0  0  0  0  0  0  0  0  0  0
   96.9390  -40.0910   53.2232 S   0  0  0  0  0  0  0  0  0  0  0  0
   97.6167  -41.2867   54.8075 S   0  0  0  0  0  0  0  0  0  0  0  0
   99.7092  -41.2685   54.7845 S   0  0  0  0  0  0  0  0  0  0  0  0
  100.3714  -42.4608   56.3638 S   0  0  0  0  0  0  0  0  0  0  0  0
  102.4477  -42.4584   56.3097 S   0  0  0  0  0  0  0  0  0  0  0  0
  103.1004  -43.5778   57.9257 S   0  0  0  0  0  0  0  0  0  0  0  0
  105.1646  -43.5909   57.8351 S   0  0  0  0  0  0  0  0  0  0  0  0
  105.7390  -41.6445   58.1570 S   0  0  0  0  0  0  0  0  0  0  0  0
   22.0489   14.5093    3.1488 H   0  0  0  0  0  0  0  0  0  0  0  0
   23.4885   13.7609    3.8645 H   0  0  0  0  0  0  0  0  0  0  0  0
   22.1300   14.2858    4.9061 H   0  0  0  0  0  0  0  0  0  0  0  0
   22.0950   11.8569    6.0764 H   0  0  0  0  0  0  0  0  0  0  0  0
   23.4470   11.3371    5.0417 H   0  0  0  0  0  0  0  0  0  0  0  0
   22.0583    9.4244    4.1988 H   0  0  0  0  0  0  0  0  0  0  0  0
   20.7153    9.9408    5.2266 H   0  0  0  0  0  0  0  0  0  0  0  0
   22.1241    9.5676    7.2532 H   0  0  0  0  0  0  0  0  0  0  0  0
   23.4680    9.0543    6.2293 H   0  0  0  0  0  0  0  0  0  0  0  0
   22.0507    7.2038    5.3059 H   0  0  0  0  0  0  0  0  0  0  0  0
   20.7089    7.7182    6.3289 H   0  0  0  0  0  0  0  0  0  0  0  0
   22.1080    7.3152    8.3655 H   0  0  0  0  0  0  0  0  0  0  0  0
   23.4506    6.7991    7.3411 H   0  0  0  0  0  0  0  0  0  0  0  0
   22.0301    4.9551    6.4131 H   0  0  0  0  0  0  0  0  0  0  0  0
   20.6858    5.4730    7.4358 H   0  0  0  0  0  0  0  0  0  0  0  0
   22.0912    5.0798    9.4744 H   0  0  0  0  0  0  0  0  0  0  0  0
   23.4345    4.5610    8.4472 H   0  0  0  0  0  0  0  0  0  0  0  0
   22.0125    2.7147    7.5177 H   0  0  0  0  0  0  0  0  0  0  0  0
   20.6708    3.2350    8.5485 H   0  0  0  0  0  0  0  0  0  0  0  0
   22.0776    2.8504   10.5830 H   0  0  0  0  0  0  0  0  0  0  0  0
   23.4215    2.3390    9.5592 H   0  0  0  0  0  0  0  0  0  0  0  0
   22.0091    0.4855    8.6411 H   0  0  0  0  0  0  0  0  0  0  0  0
   20.6626    1.0049    9.6588 H   0  0  0  0  0  0  0  0  0  0  0  0
   22.0632    0.6214   11.6988 H   0  0  0  0  0  0  0  0  0  0  0  0
   23.4103    0.1015   10.6820 H   0  0  0  0  0  0  0  0  0  0  0  0
   21.9908   -1.7478    9.7573 H   0  0  0  0  0  0  0  0  0  0  0  0
   20.6470   -1.2264   10.7799 H   0  0  0  0  0  0  0  0  0  0  0  0
   22.0495   -1.6194   12.8208 H   0  0  0  0  0  0  0  0  0  0  0  0
   23.3917   -2.1411   11.7987 H   0  0  0  0  0  0  0  0  0  0  0  0
   21.9771   -3.9935   10.8827 H   0  0  0  0  0  0  0  0  0  0  0  0
   20.6362   -3.4746   11.9064 H   0  0  0  0  0  0  0  0  0  0  0  0
   22.0326   -3.8851   13.9508 H   0  0  0  0  0  0  0  0  0  0  0  0
   23.3780   -4.4026   12.9274 H   0  0  0  0  0  0  0  0  0  0  0  0
   21.9661   -6.2294   11.9929 H   0  0  0  0  0  0  0  0  0  0  0  0
   20.6207   -5.7375   13.0267 H   0  0  0  0  0  0  0  0  0  0  0  0
   21.9921   -6.2058   15.0719 H   0  0  0  0  0  0  0  0  0  0  0  0
   23.3458   -6.7108   14.0622 H   0  0  0  0  0  0  0  0  0  0  0  0
  107.0759  -41.7612   58.0916 H   0  0  0  0  0  0  0  0  0  0  0  0
  1  2  1  0  0  0  0
  1 82  1  0  0  0  0
  1 83  1  0  0  0  0
  1 84  1  0  0  0  0
  2  3  1  0  0  0  0
  3  4  1  0  0  0  0
  3 85  1  0  0  0  0
  3 86  1  0  0  0  0
  4  5  1  0  0  0  0
  4 87  1  0  0  0  0
  4 88  1  0  0  0  0
  5  6  1  0  0  0  0
  5 89  1  0  0  0  0
  5 90  1  0  0  0  0
  6  7  1  0  0  0  0
  6 91  1  0  0  0  0
  6 92  1  0  0  0  0
  7  8  1  0  0  0  0
  7 93  1  0  0  0  0
  7 94  1  0  0  0  0
  8  9  1  0  0  0  0
  8 95  1  0  0  0  0
  8 96  1  0  0  0  0
  9 10  1  0  0  0  0
  9 97  1  0  0  0  0
  9 98  1  0  0  0  0
 10 11  1  0  0  0  0
 10 99  1  0  0  0  0
 10100  1  0  0  0  0
 11 12  1  0  0  0  0
 11101  1  0  0  0  0
 11102  1  0  0  0  0
 12 13  1  0  0  0  0
 12103  1  0  0  0  0
 12104  1  0  0  0  0
 13 14  1  0  0  0  0
 13105  1  0  0  0  0
 13106  1  0  0  0  0
 14 15  1  0  0  0  0
 14107  1  0  0  0  0
 14108  1  0  0  0  0
 15 16  1  0  0  0  0
 15109  1  0  0  0  0
 15110  1  0  0  0  0
 16 17  1  0  0  0  0
 16111  1  0  0  0  0
 16112  1  0  0  0  0
 17 18  1  0  0  0  0
 17113  1  0  0  0  0
 17114  1  0  0  0  0
 18 19  1  0  0  0  0
 18115  1  0  0  0  0
 18116  1  0  0  0  0
 19 20  1  0  0  0  0
 19117  1  0  0  0  0
 19118  1  0  0  0  0
 20 21  1  0  0  0  0
 21 22  1  0  0  0  0
 22 23  1  0  0  0  0
 23 24  1  0  0  0  0
 24 25  1  0  0  0  0
 25 26  1  0  0  0  0
 26 27  1  0  0  0  0
 27 28  1  0  0  0  0
 28 29  1  0  0  0  0
 29 30  1  0  0  0  0
 30 31  1  0  0  0  0
 31 32  1  0  0  0  0
 32 33  1  0  0  0  0
 33 34  1  0  0  0  0
 34 35  1  0  0  0  0
 35 36  1  0  0  0  0
 36 37  1  0  0  0  0
 37 38  1  0  0  0  0
 38 39  1  0  0  0  0
 39 40  1  0  0  0  0
 40 41  1  0  0  0  0
 41 42  1  0  0  0  0
 42 43  1  0  0  0  0
 43 44  1  0  0  0  0
 44 45  1  0  0  0  0
 45 46  1  0  0  0  0
 46 47  1  0  0  0  0
 47 48  1  0  0  0  0
 48 49  1  0  0  0  0
 49 50  1  0  0  0  0
 50 51  1  0  0  0  0
 51 52  1  0  0  0  0
 52 53  1  0  0  0  0
 53 54  1  0  0  0  0
 54 55  1  0  0  0  0
 55 56  1  0  0  0  0
 56 57  1  0  0  0  0
 57 58  1  0  0  0  0
 58 59  1  0  0  0  0
 59 60  1  0  0  0  0
 60 61  1  0  0  0  0
 61 62  1  0  0  0  0
 62 63  1  0  0  0  0
 63 64  1  0  0  0  0
 64 65  1  0  0  0  0
 65 66  1  0  0  0  0
 66 67  1  0  0  0  0
 67 68  1  0  0  0  0
 68 69  1  0  0  0  0
 69 70  1  0  0  0  0
 70 71  1  0  0  0  0
 71 72  1  0  0  0  0
 72 73  1  0  0  0  0
 73 74  1  0  0  0  0
 74 75  1  0  0  0  0
 75 76  1  0  0  0  0
 76 77  1  0  0  0  0
 77 78  1  0  0  0  0
 78 79  1  0  0  0  0
 79 80  1  0  0  0  0
 80 81  1  0  0  0  0
 81119  1  0  0  0  0
M  END
$$$$
