
 OpenBabel04232216553D

144143  0  0  0  0  0  0  0  0999 V2000
   51.7154   19.5611  -37.1540 C   0  0  0  0  0  0  0  0  0  0  0  0
   51.2606   18.9781  -35.8364 C   0  0  0  0  0  0  0  0  0  0  0  0
   51.6996   19.9302  -34.7361 C   0  0  0  0  0  0  0  0  0  0  0  0
   51.2442   19.4112  -33.3842 C   0  0  0  0  0  0  0  0  0  0  0  0
   51.6414   20.3989  -32.3723 N   0  0  0  0  0  0  0  0  0  0  0  0
   51.8068   19.7155  -31.1495 N   0  0  0  0  0  0  0  0  0  0  0  0
   51.3736   20.4080  -30.0088 N   0  0  0  0  0  0  0  0  0  0  0  0
   50.4196   21.4318  -30.0508 N   0  0  0  0  0  0  0  0  0  0  0  0
   49.0898   21.0065  -30.2189 N   0  0  0  0  0  0  0  0  0  0  0  0
   48.0586   22.3045  -30.2837 S   0  0  0  0  0  0  0  0  0  0  0  0
   48.4636   23.2388  -31.5791 N   0  0  0  0  0  0  0  0  0  0  0  0
   48.3334   22.5212  -33.0475 S   0  0  0  0  0  0  0  0  0  0  0  0
   46.7402   22.1214  -33.1710 N   0  0  0  0  0  0  0  0  0  0  0  0
   46.3413   21.1212  -34.4179 S   0  0  0  0  0  0  0  0  0  0  0  0
   47.3011   19.7591  -34.4061 N   0  0  0  0  0  0  0  0  0  0  0  0
   47.1709   18.8162  -33.0625 S   0  0  0  0  0  0  0  0  0  0  0  0
   47.4992   17.2374  -33.4748 N   0  0  0  0  0  0  0  0  0  0  0  0
   49.0932   16.6729  -33.4013 S   0  0  0  0  0  0  0  0  0  0  0  0
   49.8097   16.9858  -31.9046 N   0  0  0  0  0  0  0  0  0  0  0  0
   50.7341   15.7316  -31.0812 S   0  0  0  0  0  0  0  0  0  0  0  0
   50.1102   14.7099  -29.7211 N   0  0  0  0  0  0  0  0  0  0  0  0
   48.9123   14.7632  -28.3068 S   0  0  0  0  0  0  0  0  0  0  0  0
   47.0017   15.0016  -28.3998 N   0  0  0  0  0  0  0  0  0  0  0  0
   45.5708   14.8313  -29.5856 S   0  0  0  0  0  0  0  0  0  0  0  0
   45.7086   15.0726  -31.2597 N   0  0  0  0  0  0  0  0  0  0  0  0
   45.5414   13.9024  -32.4358 S   0  0  0  0  0  0  0  0  0  0  0  0
   43.9618   13.9471  -32.8673 N   0  0  0  0  0  0  0  0  0  0  0  0
   43.5105   15.4580  -33.4075 S   0  0  0  0  0  0  0  0  0  0  0  0
   43.4743   16.1814  -31.9406 N   0  0  0  0  0  0  0  0  0  0  0  0
   43.2678   17.7825  -31.8569 S   0  0  0  0  0  0  0  0  0  0  0  0
   41.6340   17.9352  -31.7486 N   0  0  0  0  0  0  0  0  0  0  0  0
   40.8587   17.0237  -30.6084 S   0  0  0  0  0  0  0  0  0  0  0  0
   41.5381   17.0902  -29.0957 N   0  0  0  0  0  0  0  0  0  0  0  0
   40.6952   15.9542  -28.2385 S   0  0  0  0  0  0  0  0  0  0  0  0
   41.5505   14.6052  -27.9536 N   0  0  0  0  0  0  0  0  0  0  0  0
   43.0676   14.8452  -27.4062 S   0  0  0  0  0  0  0  0  0  0  0  0
   43.8269   13.3728  -27.3720 N   0  0  0  0  0  0  0  0  0  0  0  0
   43.2452   12.1603  -28.3433 S   0  0  0  0  0  0  0  0  0  0  0  0
   44.0444   12.2137  -29.7835 N   0  0  0  0  0  0  0  0  0  0  0  0
   45.4991   11.3926  -29.8423 S   0  0  0  0  0  0  0  0  0  0  0  0
   46.7254   12.3993  -29.3168 N   0  0  0  0  0  0  0  0  0  0  0  0
   47.8917   12.8803  -30.4511 S   0  0  0  0  0  0  0  0  0  0  0  0
   48.1068   14.6868  -30.9976 N   0  0  0  0  0  0  0  0  0  0  0  0
   47.7161   16.5740  -30.3984 S   0  0  0  0  0  0  0  0  0  0  0  0
   48.3241   17.3530  -29.0160 N   0  0  0  0  0  0  0  0  0  0  0  0
   49.8966   17.8644  -28.9456 S   0  0  0  0  0  0  0  0  0  0  0  0
   50.2253   18.1720  -27.3586 N   0  0  0  0  0  0  0  0  0  0  0  0
   49.9036   19.7504  -27.0300 S   0  0  0  0  0  0  0  0  0  0  0  0
   48.2933   19.8692  -27.4563 N   0  0  0  0  0  0  0  0  0  0  0  0
   47.3054   19.6414  -26.1565 S   0  0  0  0  0  0  0  0  0  0  0  0
   47.8888   20.6587  -24.9988 N   0  0  0  0  0  0  0  0  0  0  0  0
   47.6030   22.2587  -25.3257 S   0  0  0  0  0  0  0  0  0  0  0  0
   45.9884   22.3772  -25.5828 N   0  0  0  0  0  0  0  0  0  0  0  0
   45.1285   22.1156  -24.2036 S   0  0  0  0  0  0  0  0  0  0  0  0
   43.5802   22.3999  -24.7006 N   0  0  0  0  0  0  0  0  0  0  0  0
   43.1787   21.6847  -26.1490 S   0  0  0  0  0  0  0  0  0  0  0  0
   43.3850   20.0478  -26.0034 N   0  0  0  0  0  0  0  0  0  0  0  0
   42.7123   19.4591  -24.8694 N   0  0  0  0  0  0  0  0  0  0  0  0
   41.3178   19.7680  -24.8282 N   0  0  0  0  0  0  0  0  0  0  0  0
   40.6302   19.1764  -25.9262 N   0  0  0  0  0  0  0  0  0  0  0  0
   40.5953   17.7724  -25.8725 N   0  0  0  0  0  0  0  0  0  0  0  0
   39.9657   17.2172  -24.7549 N   0  0  0  0  0  0  0  0  0  0  0  0
   38.5667   17.3858  -24.8725 N   0  0  0  0  0  0  0  0  0  0  0  0
   38.1085   16.8352  -26.1438 N   0  0  0  0  0  0  0  0  0  0  0  0
   38.3856   15.4269  -26.2307 N   0  0  0  0  0  0  0  0  0  0  0  0
   37.8152   14.7349  -25.1344 N   0  0  0  0  0  0  0  0  0  0  0  0
   36.3888   14.9674  -25.1253 N   0  0  0  0  0  0  0  0  0  0  0  0
   35.7924   14.4348  -26.3289 N   0  0  0  0  0  0  0  0  0  0  0  0
   36.0753   13.0368  -26.4457 N   0  0  0  0  0  0  0  0  0  0  0  0
   35.5015   12.3669  -25.3135 N   0  0  0  0  0  0  0  0  0  0  0  0
   34.0933   12.7104  -25.2632 N   0  0  0  0  0  0  0  0  0  0  0  0
   33.4769   12.3132  -26.5088 N   0  0  0  0  0  0  0  0  0  0  0  0
   33.5779   10.8867  -26.6853 N   0  0  0  0  0  0  0  0  0  0  0  0
   33.0478   10.1911  -25.5505 N   0  0  0  0  0  0  0  0  0  0  0  0
   31.6498   10.4749  -25.4319 N   0  0  0  0  0  0  0  0  0  0  0  0
   30.9853   10.0747  -26.6533 N   0  0  0  0  0  0  0  0  0  0  0  0
   31.1785    8.6606  -26.8835 N   0  0  0  0  0  0  0  0  0  0  0  0
   30.6117    7.8851  -25.8064 N   0  0  0  0  0  0  0  0  0  0  0  0
   29.1933    8.1400  -25.6684 N   0  0  0  0  0  0  0  0  0  0  0  0
   28.4865    7.8118  -26.8694 N   0  0  0  0  0  0  0  0  0  0  0  0
   28.5864    6.3998  -27.0769 N   0  0  0  0  0  0  0  0  0  0  0  0
   51.4563   18.9003  -37.9825 H   0  0  0  0  0  0  0  0  0  0  0  0
   52.7983   19.7077  -37.1437 H   0  0  0  0  0  0  0  0  0  0  0  0
   51.2412   20.5355  -37.3168 H   0  0  0  0  0  0  0  0  0  0  0  0
   51.7110   17.9860  -35.6851 H   0  0  0  0  0  0  0  0  0  0  0  0
   50.1738   18.8455  -35.8328 H   0  0  0  0  0  0  0  0  0  0  0  0
   51.2979   20.9336  -34.9130 H   0  0  0  0  0  0  0  0  0  0  0  0
   52.7892   19.9801  -34.7331 H   0  0  0  0  0  0  0  0  0  0  0  0
   51.7124   18.4402  -33.2069 H   0  0  0  0  0  0  0  0  0  0  0  0
   50.1496   19.3161  -33.3679 H   0  0  0  0  0  0  0  0  0  0  0  0
   50.7967   21.0242  -32.2570 H   0  0  0  0  0  0  0  0  0  0  0  0
   51.3722   18.7773  -31.1832 H   0  0  0  0  0  0  0  0  0  0  0  0
   52.0178   20.4298  -29.2145 H   0  0  0  0  0  0  0  0  0  0  0  0
   50.6797   22.2387  -30.6326 H   0  0  0  0  0  0  0  0  0  0  0  0
   48.8081   20.4627  -29.3971 H   0  0  0  0  0  0  0  0  0  0  0  0
   49.3169   23.7704  -31.4218 H   0  0  0  0  0  0  0  0  0  0  0  0
   46.1555   22.9604  -33.1473 H   0  0  0  0  0  0  0  0  0  0  0  0
   48.2531   20.0632  -34.5710 H   0  0  0  0  0  0  0  0  0  0  0  0
   47.0090   16.9966  -34.3408 H   0  0  0  0  0  0  0  0  0  0  0  0
   49.1834   17.4589  -31.2320 H   0  0  0  0  0  0  0  0  0  0  0  0
   50.9519   14.2885  -29.3261 H   0  0  0  0  0  0  0  0  0  0  0  0
   46.7314   15.8204  -27.8611 H   0  0  0  0  0  0  0  0  0  0  0  0
   46.5019   15.6634  -31.4859 H   0  0  0  0  0  0  0  0  0  0  0  0
   43.4867   13.8098  -31.9693 H   0  0  0  0  0  0  0  0  0  0  0  0
   44.3293   15.9009  -31.4631 H   0  0  0  0  0  0  0  0  0  0  0  0
   41.3045   17.5628  -32.6402 H   0  0  0  0  0  0  0  0  0  0  0  0
   41.3542   17.9679  -28.5813 H   0  0  0  0  0  0  0  0  0  0  0  0
   41.5553   13.9823  -28.7492 H   0  0  0  0  0  0  0  0  0  0  0  0
   43.8054   13.0702  -26.4087 H   0  0  0  0  0  0  0  0  0  0  0  0
   44.0844   13.1544  -30.1763 H   0  0  0  0  0  0  0  0  0  0  0  0
   46.3569   13.1805  -28.7603 H   0  0  0  0  0  0  0  0  0  0  0  0
   47.7843   14.6009  -31.9558 H   0  0  0  0  0  0  0  0  0  0  0  0
   48.1114   16.9070  -28.1271 H   0  0  0  0  0  0  0  0  0  0  0  0
   51.2170   17.9842  -27.1353 H   0  0  0  0  0  0  0  0  0  0  0  0
   48.1171   19.0744  -28.0770 H   0  0  0  0  0  0  0  0  0  0  0  0
   48.8968   20.5128  -24.9875 H   0  0  0  0  0  0  0  0  0  0  0  0
   45.6635   21.6804  -26.2636 H   0  0  0  0  0  0  0  0  0  0  0  0
   43.5378   23.4074  -24.8472 H   0  0  0  0  0  0  0  0  0  0  0  0
   44.3848   19.8084  -25.9997 H   0  0  0  0  0  0  0  0  0  0  0  0
   43.1558   19.7886  -24.0063 H   0  0  0  0  0  0  0  0  0  0  0  0
   41.2188   20.7742  -24.9419 H   0  0  0  0  0  0  0  0  0  0  0  0
   41.1251   19.4699  -26.7777 H   0  0  0  0  0  0  0  0  0  0  0  0
   41.4554   17.2908  -26.1375 H   0  0  0  0  0  0  0  0  0  0  0  0
   40.3263   17.6270  -23.8907 H   0  0  0  0  0  0  0  0  0  0  0  0
   38.3539   18.3798  -24.8955 H   0  0  0  0  0  0  0  0  0  0  0  0
   38.6815   17.2697  -26.8803 H   0  0  0  0  0  0  0  0  0  0  0  0
   39.4069   15.2977  -26.2319 H   0  0  0  0  0  0  0  0  0  0  0  0
   38.2175   15.1628  -24.2933 H   0  0  0  0  0  0  0  0  0  0  0  0
   36.2895   15.9938  -25.1421 H   0  0  0  0  0  0  0  0  0  0  0  0
   36.2626   14.8618  -27.1189 H   0  0  0  0  0  0  0  0  0  0  0  0
   37.1030   12.9774  -26.4160 H   0  0  0  0  0  0  0  0  0  0  0  0
   35.9570   12.8226  -24.5083 H   0  0  0  0  0  0  0  0  0  0  0  0
   34.0991   13.7457  -25.2550 H   0  0  0  0  0  0  0  0  0  0  0  0
   34.0401   12.7809  -27.2412 H   0  0  0  0  0  0  0  0  0  0  0  0
   34.5659   10.6581  -26.6940 H   0  0  0  0  0  0  0  0  0  0  0  0
   33.5573   10.5817  -24.7480 H   0  0  0  0  0  0  0  0  0  0  0  0
   31.5985   11.5012  -25.3706 H   0  0  0  0  0  0  0  0  0  0  0  0
   31.4978   10.5734  -27.3981 H   0  0  0  0  0  0  0  0  0  0  0  0
   32.2013    8.5233  -26.8850 H   0  0  0  0  0  0  0  0  0  0  0  0
   31.0822    8.2134  -24.9517 H   0  0  0  0  0  0  0  0  0  0  0  0
   29.1052    9.1538  -25.5098 H   0  0  0  0  0  0  0  0  0  0  0  0
   28.9538    8.3216  -27.6346 H   0  0  0  0  0  0  0  0  0  0  0  0
   28.2684    5.9504  -26.2182 H   0  0  0  0  0  0  0  0  0  0  0  0
   29.5916    6.1946  -27.0830 H   0  0  0  0  0  0  0  0  0  0  0  0
  1  2  1  0  0  0  0
  1 82  1  0  0  0  0
  1 83  1  0  0  0  0
  1 84  1  0  0  0  0
  2  3  1  0  0  0  0
  2 85  1  0  0  0  0
  2 86  1  0  0  0  0
  3  4  1  0  0  0  0
  3 87  1  0  0  0  0
  3 88  1  0  0  0  0
  4  5  1  0  0  0  0
  4 89  1  0  0  0  0
  4 90  1  0  0  0  0
  5  6  1  0  0  0  0
  5 91  1  0  0  0  0
  6  7  1  0  0  0  0
  6 92  1  0  0  0  0
  7  8  1  0  0  0  0
  7 93  1  0  0  0  0
  8  9  1  0  0  0  0
  8 94  1  0  0  0  0
  9 10  1  0  0  0  0
  9 95  1  0  0  0  0
 10 11  1  0  0  0  0
 11 12  1  0  0  0  0
 11 96  1  0  0  0  0
 12 13  1  0  0  0  0
 13 14  1  0  0  0  0
 13 97  1  0  0  0  0
 14 15  1  0  0  0  0
 15 16  1  0  0  0  0
 15 98  1  0  0  0  0
 16 17  1  0  0  0  0
 17 18  1  0  0  0  0
 17 99  1  0  0  0  0
 18 19  1  0  0  0  0
 19 20  1  0  0  0  0
 19100  1  0  0  0  0
 20 21  1  0  0  0  0
 21 22  1  0  0  0  0
 21101  1  0  0  0  0
 22 23  1  0  0  0  0
 23 24  1  0  0  0  0
 23102  1  0  0  0  0
 24 25  1  0  0  0  0
 25 26  1  0  0  0  0
 25103  1  0  0  0  0
 26 27  1  0  0  0  0
 27 28  1  0  0  0  0
 27104  1  0  0  0  0
 28 29  1  0  0  0  0
 29 30  1  0  0  0  0
 29105  1  0  0  0  0
 30 31  1  0  0  0  0
 31 32  1  0  0  0  0
 31106  1  0  0  0  0
 32 33  1  0  0  0  0
 33 34  1  0  0  0  0
 33107  1  0  0  0  0
 34 35  1  0  0  0  0
 35 36  1  0  0  0  0
 35108  1  0  0  0  0
 36 37  1  0  0  0  0
 37 38  1  0  0  0  0
 37109  1  0  0  0  0
 38 39  1  0  0  0  0
 39 40  1  0  0  0  0
 39110  1  0  0  0  0
 40 41  1  0  0  0  0
 41 42  1  0  0  0  0
 41111  1  0  0  0  0
 42 43  1  0  0  0  0
 43 44  1  0  0  0  0
 43112  1  0  0  0  0
 44 45  1  0  0  0  0
 45 46  1  0  0  0  0
 45113  1  0  0  0  0
 46 47  1  0  0  0  0
 47 48  1  0  0  0  0
 47114  1  0  0  0  0
 48 49  1  0  0  0  0
 49 50  1  0  0  0  0
 49115  1  0  0  0  0
 50 51  1  0  0  0  0
 51 52  1  0  0  0  0
 51116  1  0  0  0  0
 52 53  1  0  0  0  0
 53 54  1  0  0  0  0
 53117  1  0  0  0  0
 54 55  1  0  0  0  0
 55 56  1  0  0  0  0
 55118  1  0  0  0  0
 56 57  1  0  0  0  0
 57 58  1  0  0  0  0
 57119  1  0  0  0  0
 58 59  1  0  0  0  0
 58120  1  0  0  0  0
 59 60  1  0  0  0  0
 59121  1  0  0  0  0
 60 61  1  0  0  0  0
 60122  1  0  0  0  0
 61 62  1  0  0  0  0
 61123  1  0  0  0  0
 62 63  1  0  0  0  0
 62124  1  0  0  0  0
 63 64  1  0  0  0  0
 63125  1  0  0  0  0
 64 65  1  0  0  0  0
 64126  1  0  0  0  0
 65 66  1  0  0  0  0
 65127  1  0  0  0  0
 66 67  1  0  0  0  0
 66128  1  0  0  0  0
 67 68  1  0  0  0  0
 67129  1  0  0  0  0
 68 69  1  0  0  0  0
 68130  1  0  0  0  0
 69 70  1  0  0  0  0
 69131  1  0  0  0  0
 70 71  1  0  0  0  0
 70132  1  0  0  0  0
 71 72  1  0  0  0  0
 71133  1  0  0  0  0
 72 73  1  0  0  0  0
 72134  1  0  0  0  0
 73 74  1  0  0  0  0
 73135  1  0  0  0  0
 74 75  1  0  0  0  0
 74136  1  0  0  0  0
 75 76  1  0  0  0  0
 75137  1  0  0  0  0
 76 77  1  0  0  0  0
 76138  1  0  0  0  0
 77 78  1  0  0  0  0
 77139  1  0  0  0  0
 78 79  1  0  0  0  0
 78140  1  0  0  0  0
 79 80  1  0  0  0  0
 79141  1  0  0  0  0
 80 81  1  0  0  0  0
 80142  1  0  0  0  0
 81143  1  0  0  0  0
 81144  1  0  0  0  0
M  END
$$$$
