
 OpenBabel04232217003D

105105  0  0  1  0  0  0  0  0999 V2000
    9.9994   12.8625   -1.9548 O   0  0  0  0  0  0  0  0  0  0  0  0
    8.6604   13.3438   -2.2013 C   0  0  3  0  0  0  0  0  0  0  0  0
    7.5396   12.5757   -2.1773 C   0  0  0  0  0  0  0  0  0  0  0  0
    7.8504   12.7037   -3.4726 C   0  0  0  0  0  0  0  0  0  0  0  0
    8.7264   13.0925   -4.4134 O   0  0  0  0  0  0  0  0  0  0  0  0
    8.2146   12.7312   -5.7031 O   0  0  0  0  0  0  0  0  0  0  0  0
    8.6852   13.7245   -6.6367 O   0  0  0  0  0  0  0  0  0  0  0  0
    8.2850   13.4147   -7.9722 O   0  0  0  0  0  0  0  0  0  0  0  0
    8.7576   14.4460   -8.8510 O   0  0  0  0  0  0  0  0  0  0  0  0
    8.3438   14.1570  -10.1848 O   0  0  0  0  0  0  0  0  0  0  0  0
    8.8106   15.1803  -11.0787 O   0  0  0  0  0  0  0  0  0  0  0  0
    8.4015   14.8435  -12.4061 O   0  0  0  0  0  0  0  0  0  0  0  0
    8.9526   13.5478  -12.7651 O   0  0  0  0  0  0  0  0  0  0  0  0
    8.5004   13.3609  -14.0799 C   0  0  0  0  0  0  0  0  0  0  0  0
    8.9958   14.4211  -14.8891 O   0  0  0  0  0  0  0  0  0  0  0  0
    8.5304   14.2675  -16.2045 C   0  0  0  0  0  0  0  0  0  0  0  0
    7.1154   14.2861  -16.2105 O   0  0  0  0  0  0  0  0  0  0  0  0
    6.6467   14.1087  -17.5182 C   0  0  0  0  0  0  0  0  0  0  0  0
    5.2384   14.1051  -17.4814 O   0  0  0  0  0  0  0  0  0  0  0  0
    4.7538   13.9510  -18.7916 C   0  0  0  0  0  0  0  0  0  0  0  0
    3.3297   13.9460  -18.7902 O   0  0  0  0  0  0  0  0  0  0  0  0
    2.8686   13.7834  -20.1109 C   0  0  0  0  0  0  0  0  0  0  0  0
    3.3161   12.5404  -20.6351 O   0  0  0  0  0  0  0  0  0  0  0  0
    2.8733   12.3945  -21.9515 C   0  0  0  0  0  0  0  0  0  0  0  0
    3.3449   11.1587  -22.4839 O   0  0  0  0  0  0  0  0  0  0  0  0
    2.8785   11.0182  -23.8028 C   0  0  0  0  0  0  0  0  0  0  0  0
    3.3587   12.0722  -24.6064 O   0  0  0  0  0  0  0  0  0  0  0  0
    2.8717   11.9220  -25.9054 C   0  0  0  0  0  0  0  0  0  0  0  0
    3.3543   13.0015  -26.6435 O   0  0  0  0  0  0  0  0  0  0  0  0
    2.9010   12.8712  -27.9529 C   0  0  0  0  0  0  0  0  0  0  0  0
    3.4181   13.9672  -28.6179 O   0  0  0  0  0  0  0  0  0  0  0  0
    2.9154   13.7587  -29.9134 O   0  0  0  0  0  0  0  0  0  0  0  0
    3.3772   14.8114  -30.6864 O   0  0  0  0  0  0  0  0  0  0  0  0
    2.8827   14.6126  -31.9727 O   0  0  0  0  0  0  0  0  0  0  0  0
    3.3575   15.6734  -32.7179 O   0  0  0  0  0  0  0  0  0  0  0  0
    2.8790   15.4981  -34.0013 O   0  0  0  0  0  0  0  0  0  0  0  0
    3.3654   16.5661  -34.7223 O   0  0  0  0  0  0  0  0  0  0  0  0
    2.8912   16.3959  -36.0023 O   0  0  0  0  0  0  0  0  0  0  0  0
    3.3743   17.4488  -36.7005 O   0  0  0  0  0  0  0  0  0  0  0  0
    2.8951   17.2759  -37.9918 O   0  0  0  0  0  0  0  0  0  0  0  0
    3.3768   18.3359  -38.7110 O   0  0  0  0  0  0  0  0  0  0  0  0
    2.8937   18.1453  -39.9758 O   0  0  0  0  0  0  0  0  0  0  0  0
    3.3725   19.2013  -40.6963 O   0  0  0  0  0  0  0  0  0  0  0  0
    2.8896   19.0109  -41.9610 O   0  0  0  0  0  0  0  0  0  0  0  0
    3.3713   20.0697  -42.6774 O   0  0  0  0  0  0  0  0  0  0  0  0
    2.8905   19.8830  -43.9429 O   0  0  0  0  0  0  0  0  0  0  0  0
    3.3735   20.9414  -44.6540 O   0  0  0  0  0  0  0  0  0  0  0  0
    2.8918   20.7523  -45.9173 O   0  0  0  0  0  0  0  0  0  0  0  0
    3.3741   21.8111  -46.6318 O   0  0  0  0  0  0  0  0  0  0  0  0
    2.8905   21.6177  -47.8921 O   0  0  0  0  0  0  0  0  0  0  0  0
    3.3695   22.6740  -48.6124 O   0  0  0  0  0  0  0  0  0  0  0  0
    2.8866   22.4813  -49.8718 O   0  0  0  0  0  0  0  0  0  0  0  0
    3.3701   23.5408  -50.5834 O   0  0  0  0  0  0  0  0  0  0  0  0
    2.8907   23.3548  -51.8460 O   0  0  0  0  0  0  0  0  0  0  0  0
    3.3757   24.4152  -52.5543 O   0  0  0  0  0  0  0  0  0  0  0  0
    2.8947   24.2272  -53.8177 O   0  0  0  0  0  0  0  0  0  0  0  0
    3.3767   25.2850  -54.5309 O   0  0  0  0  0  0  0  0  0  0  0  0
    2.8944   25.0942  -55.7925 O   0  0  0  0  0  0  0  0  0  0  0  0
    3.3754   26.1516  -56.5080 O   0  0  0  0  0  0  0  0  0  0  0  0
    2.8937   25.9617  -57.7700 O   0  0  0  0  0  0  0  0  0  0  0  0
    3.3753   27.0197  -58.4847 O   0  0  0  0  0  0  0  0  0  0  0  0
    2.8941   26.8313  -59.7478 O   0  0  0  0  0  0  0  0  0  0  0  0
    3.3800   27.8933  -60.4570 O   0  0  0  0  0  0  0  0  0  0  0  0
    2.8972   27.7049  -61.7259 O   0  0  0  0  0  0  0  0  0  0  0  0
    3.3792   28.7672  -62.4492 O   0  0  0  0  0  0  0  0  0  0  0  0
    2.8943   28.5748  -63.7163 O   0  0  0  0  0  0  0  0  0  0  0  0
    3.3762   29.6356  -64.4366 O   0  0  0  0  0  0  0  0  0  0  0  0
    2.8946   29.4513  -65.7107 O   0  0  0  0  0  0  0  0  0  0  0  0
    3.3752   30.5136  -66.4389 O   0  0  0  0  0  0  0  0  0  0  0  0
    2.8957   30.3333  -67.7144 O   0  0  0  0  0  0  0  0  0  0  0  0
    3.3766   31.3999  -68.4516 O   0  0  0  0  0  0  0  0  0  0  0  0
    2.8962   31.2190  -69.7292 O   0  0  0  0  0  0  0  0  0  0  0  0
    3.3689   32.2837  -70.4905 O   0  0  0  0  0  0  0  0  0  0  0  0
    2.8820   32.0928  -71.7682 O   0  0  0  0  0  0  0  0  0  0  0  0
    3.3464   33.1513  -72.5450 O   0  0  0  0  0  0  0  0  0  0  0  0
    2.8521   32.9603  -73.8485 O   0  0  0  0  0  0  0  0  0  0  0  0
    3.3783   34.0652  -74.5131 C   0  0  0  0  0  0  0  0  0  0  0  0
    2.9305   33.9571  -75.8332 O   0  0  0  0  0  0  0  0  0  0  0  0
    3.4217   35.0442  -76.5801 C   0  0  0  0  0  0  0  0  0  0  0  0
   10.2587   12.9854   -1.0360 H   0  0  0  0  0  0  0  0  0  0  0  0
    8.5390   14.4296   -2.2503 H   0  0  0  0  0  0  0  0  0  0  0  0
    6.8114   12.2234   -1.4968 H   0  0  0  0  0  0  0  0  0  0  0  0
    7.4010   13.3394  -14.0707 H   0  0  0  0  0  0  0  0  0  0  0  0
    8.8714   12.4015  -14.4518 H   0  0  0  0  0  0  0  0  0  0  0  0
    8.9082   13.3220  -16.6084 H   0  0  0  0  0  0  0  0  0  0  0  0
    8.9056   15.1015  -16.8010 H   0  0  0  0  0  0  0  0  0  0  0  0
    7.0200   13.1530  -17.9144 H   0  0  0  0  0  0  0  0  0  0  0  0
    7.0125   14.9384  -18.1296 H   0  0  0  0  0  0  0  0  0  0  0  0
    5.1292   13.0012  -19.1968 H   0  0  0  0  0  0  0  0  0  0  0  0
    5.1120   14.7785  -19.4165 H   0  0  0  0  0  0  0  0  0  0  0  0
    3.2264   14.6174  -20.7269 H   0  0  0  0  0  0  0  0  0  0  0  0
    1.7750   13.7857  -20.0977 H   0  0  0  0  0  0  0  0  0  0  0  0
    3.2426   13.2324  -22.5615 H   0  0  0  0  0  0  0  0  0  0  0  0
    1.7774   12.3955  -21.9604 H   0  0  0  0  0  0  0  0  0  0  0  0
    1.7815   11.0113  -23.8103 H   0  0  0  0  0  0  0  0  0  0  0  0
    3.2491   10.0726  -24.2084 H   0  0  0  0  0  0  0  0  0  0  0  0
    1.7747   11.9367  -25.9158 H   0  0  0  0  0  0  0  0  0  0  0  0
    3.2479   10.9876  -26.3353 H   0  0  0  0  0  0  0  0  0  0  0  0
    1.8038   12.8951  -28.0038 H   0  0  0  0  0  0  0  0  0  0  0  0
    3.2727   11.9487  -28.4195 H   0  0  0  0  0  0  0  0  0  0  0  0
    4.4736   34.0286  -74.4465 H   0  0  0  0  0  0  0  0  0  0  0  0
    3.0092   34.9782  -74.0276 H   0  0  0  0  0  0  0  0  0  0  0  0
    3.0521   34.9210  -77.5933 H   0  0  0  0  0  0  0  0  0  0  0  0
    4.5138   35.0246  -76.5716 H   0  0  0  0  0  0  0  0  0  0  0  0
    3.0463   35.9762  -76.1518 H   0  0  0  0  0  0  0  0  0  0  0  0
  1  2  1  0  0  0  0
  1 80  1  0  0  0  0
  2  3  1  0  0  0  0
  2  4  1  0  0  0  0
  2 81  1  0  0  0  0
  3  4  2  0  0  0  0
  3 82  1  0  0  0  0
  4  5  1  0  0  0  0
  5  6  1  0  0  0  0
  6  7  1  0  0  0  0
  7  8  1  0  0  0  0
  8  9  1  0  0  0  0
  9 10  1  0  0  0  0
 10 11  1  0  0  0  0
 11 12  1  0  0  0  0
 12 13  1  0  0  0  0
 13 14  1  0  0  0  0
 14 15  1  0  0  0  0
 14 83  1  0  0  0  0
 14 84  1  0  0  0  0
 15 16  1  0  0  0  0
 16 17  1  0  0  0  0
 16 85  1  0  0  0  0
 16 86  1  0  0  0  0
 17 18  1  0  0  0  0
 18 19  1  0  0  0  0
 18 87  1  0  0  0  0
 18 88  1  0  0  0  0
 19 20  1  0  0  0  0
 20 21  1  0  0  0  0
 20 89  1  0  0  0  0
 20 90  1  0  0  0  0
 21 22  1  0  0  0  0
 22 23  1  0  0  0  0
 22 91  1  0  0  0  0
 22 92  1  0  0  0  0
 23 24  1  0  0  0  0
 24 25  1  0  0  0  0
 24 93  1  0  0  0  0
 24 94  1  0  0  0  0
 25 26  1  0  0  0  0
 26 27  1  0  0  0  0
 26 95  1  0  0  0  0
 26 96  1  0  0  0  0
 27 28  1  0  0  0  0
 28 29  1  0  0  0  0
 28 97  1  0  0  0  0
 28 98  1  0  0  0  0
 29 30  1  0  0  0  0
 30 31  1  0  0  0  0
 30 99  1  0  0  0  0
 30100  1  0  0  0  0
 31 32  1  0  0  0  0
 32 33  1  0  0  0  0
 33 34  1  0  0  0  0
 34 35  1  0  0  0  0
 35 36  1  0  0  0  0
 36 37  1  0  0  0  0
 37 38  1  0  0  0  0
 38 39  1  0  0  0  0
 39 40  1  0  0  0  0
 40 41  1  0  0  0  0
 41 42  1  0  0  0  0
 42 43  1  0  0  0  0
 43 44  1  0  0  0  0
 44 45  1  0  0  0  0
 45 46  1  0  0  0  0
 46 47  1  0  0  0  0
 47 48  1  0  0  0  0
 48 49  1  0  0  0  0
 49 50  1  0  0  0  0
 50 51  1  0  0  0  0
 51 52  1  0  0  0  0
 52 53  1  0  0  0  0
 53 54  1  0  0  0  0
 54 55  1  0  0  0  0
 55 56  1  0  0  0  0
 56 57  1  0  0  0  0
 57 58  1  0  0  0  0
 58 59  1  0  0  0  0
 59 60  1  0  0  0  0
 60 61  1  0  0  0  0
 61 62  1  0  0  0  0
 62 63  1  0  0  0  0
 63 64  1  0  0  0  0
 64 65  1  0  0  0  0
 65 66  1  0  0  0  0
 66 67  1  0  0  0  0
 67 68  1  0  0  0  0
 68 69  1  0  0  0  0
 69 70  1  0  0  0  0
 70 71  1  0  0  0  0
 71 72  1  0  0  0  0
 72 73  1  0  0  0  0
 73 74  1  0  0  0  0
 74 75  1  0  0  0  0
 75 76  1  0  0  0  0
 76 77  1  0  0  0  0
 77 78  1  0  0  0  0
 77101  1  0  0  0  0
 77102  1  0  0  0  0
 78 79  1  0  0  0  0
 79103  1  0  0  0  0
 79104  1  0  0  0  0
 79105  1  0  0  0  0
M  END
$$$$
