
 OpenBabel04232217003D

205205  0  0  1  0  0  0  0  0999 V2000
    3.7195    5.1611   -1.8581 O   0  0  0  0  0  0  0  0  0  0  0  0
    3.7950    3.9526   -1.1051 C   0  0  0  0  0  0  0  0  0  0  0  0
    2.5723    3.8344   -0.1893 C   0  0  3  0  0  0  0  0  0  0  0  0
    1.2628    3.8040   -0.9797 C   0  0  0  0  0  0  0  0  0  0  0  0
    0.2305    3.3073    0.0192 C   0  0  0  0  0  0  0  0  0  0  0  0
    0.9855    2.3932    0.9720 C   0  0  0  0  0  0  0  0  0  0  0  0
    2.4826    2.5370    0.6327 C   0  0  3  0  0  0  0  0  0  0  0  0
    3.3435    2.5391    1.8979 C   0  0  0  0  0  0  0  0  0  0  0  0
    3.1718    1.2330    2.6680 C   0  0  0  0  0  0  0  0  0  0  0  0
    3.9793    1.2120    3.9490 C   0  0  0  0  0  0  0  0  0  0  0  0
    3.7254   -0.1104    4.6558 C   0  0  0  0  0  0  0  0  0  0  0  0
    4.5372   -0.1637    5.9297 C   0  0  0  0  0  0  0  0  0  0  0  0
    4.2956   -1.4745    6.6495 C   0  0  0  0  0  0  0  0  0  0  0  0
    5.1236   -1.5041    7.9185 C   0  0  0  0  0  0  0  0  0  0  0  0
    4.8953   -2.8100    8.6510 C   0  0  0  0  0  0  0  0  0  0  0  0
    5.7255   -2.8357    9.9192 C   0  0  0  0  0  0  0  0  0  0  0  0
    5.4978   -4.1422   10.6534 C   0  0  0  0  0  0  0  0  0  0  0  0
    6.3275   -4.1695   11.9222 C   0  0  0  0  0  0  0  0  0  0  0  0
    6.1012   -5.4772   12.6555 C   0  0  0  0  0  0  0  0  0  0  0  0
    6.9308   -5.5051   13.9247 C   0  0  0  0  0  0  0  0  0  0  0  0
    6.7046   -6.8130   14.6583 C   0  0  0  0  0  0  0  0  0  0  0  0
    7.5342   -6.8409   15.9276 C   0  0  0  0  0  0  0  0  0  0  0  0
    7.3081   -8.1489   16.6612 C   0  0  0  0  0  0  0  0  0  0  0  0
    8.1380   -8.1786   17.9282 C   0  0  0  0  0  0  0  0  0  0  0  0
    7.9118   -9.4847   18.6641 C   0  0  0  0  0  0  0  0  0  0  0  0
    8.7413   -9.5127   19.9335 C   0  0  0  0  0  0  0  0  0  0  0  0
    8.5152  -10.8206   20.6673 C   0  0  0  0  0  0  0  0  0  0  0  0
    9.3446  -10.8484   21.9363 C   0  0  0  0  0  0  0  0  0  0  0  0
    9.1170  -12.1554   22.6707 C   0  0  0  0  0  0  0  0  0  0  0  0
    9.9466  -12.1830   23.9399 C   0  0  0  0  0  0  0  0  0  0  0  0
    9.7199  -13.4905   24.6725 C   0  0  0  0  0  0  0  0  0  0  0  0
   10.5495  -13.5165   25.9401 C   0  0  0  0  0  0  0  0  0  0  0  0
   10.3207  -14.8225   26.6721 C   0  0  0  0  0  0  0  0  0  0  0  0
   11.1503  -14.8467   27.9382 C   0  0  0  0  0  0  0  0  0  0  0  0
   10.9189  -16.1526   28.6624 C   0  0  0  0  0  0  0  0  0  0  0  0
   11.7480  -16.1772   29.9242 C   0  0  0  0  0  0  0  0  0  0  0  0
   11.5103  -17.4858   30.6375 C   0  0  0  0  0  0  0  0  0  0  0  0
   12.3368  -17.5079   31.8929 C   0  0  0  0  0  0  0  0  0  0  0  0
   12.1038  -18.8052   32.6059 C   0  0  0  0  0  0  0  0  0  0  0  0
   12.9152  -18.7185   33.7495 O   0  0  0  0  0  0  0  0  0  0  0  0
   12.6804  -19.9540   34.4051 O   0  0  0  0  0  0  0  0  0  0  0  0
   13.4610  -19.9843   35.5909 O   0  0  0  0  0  0  0  0  0  0  0  0
   13.2259  -21.2151   36.2575 O   0  0  0  0  0  0  0  0  0  0  0  0
   14.0088  -21.2367   37.4424 O   0  0  0  0  0  0  0  0  0  0  0  0
   13.7767  -22.4741   38.0997 O   0  0  0  0  0  0  0  0  0  0  0  0
   14.5814  -22.3892   39.2404 C   0  0  0  0  0  0  0  0  0  0  0  0
   14.3527  -23.6850   39.9579 C   0  0  0  0  0  0  0  0  0  0  0  0
   15.1784  -23.7064   41.2123 C   0  0  0  0  0  0  0  0  0  0  0  0
   14.9427  -25.0116   41.9257 C   0  0  0  0  0  0  0  0  0  0  0  0
   15.7726  -25.0365   43.1884 C   0  0  0  0  0  0  0  0  0  0  0  0
   15.5449  -26.3447   43.9134 C   0  0  0  0  0  0  0  0  0  0  0  0
   16.3757  -26.3698   45.1798 C   0  0  0  0  0  0  0  0  0  0  0  0
   16.1449  -27.6778   45.9093 C   0  0  0  0  0  0  0  0  0  0  0  0
   16.9756  -27.7061   47.1765 C   0  0  0  0  0  0  0  0  0  0  0  0
   16.7506  -29.0146   47.9085 C   0  0  0  0  0  0  0  0  0  0  0  0
   17.5840  -29.0396   49.1741 C   0  0  0  0  0  0  0  0  0  0  0  0
   17.3623  -30.3458   49.9094 C   0  0  0  0  0  0  0  0  0  0  0  0
   18.1970  -30.3682   51.1755 C   0  0  0  0  0  0  0  0  0  0  0  0
   17.9742  -31.6721   51.9084 C   0  0  0  0  0  0  0  0  0  0  0  0
   18.7923  -31.7125   53.1927 C   0  0  0  0  0  0  0  0  0  0  0  0
   18.5502  -33.0158   53.9265 C   0  0  0  0  0  0  0  0  0  0  0  0
   18.9191  -34.0829   53.0693 O   0  0  0  0  0  0  0  0  0  0  0  0
   18.7336  -35.3325   53.7109 C   0  0  0  0  0  0  0  0  0  0  0  0
   19.1250  -36.4087   52.8770 O   0  0  0  0  0  0  0  0  0  0  0  0
   20.4971  -36.2951   52.5102 C   0  0  0  0  0  0  0  0  0  0  0  0
   20.8856  -37.3645   51.6600 O   0  0  0  0  0  0  0  0  0  0  0  0
   20.1296  -37.3276   50.4607 C   0  0  0  0  0  0  0  0  0  0  0  0
   20.5445  -38.3771   49.6140 O   0  0  0  0  0  0  0  0  0  0  0  0
   19.7633  -38.3864   48.4315 C   0  0  0  0  0  0  0  0  0  0  0  0
   20.1362  -39.4612   47.5739 O   0  0  0  0  0  0  0  0  0  0  0  0
   19.9257  -40.6984   48.2436 C   0  0  0  0  0  0  0  0  0  0  0  0
   20.2786  -41.7693   47.3876 O   0  0  0  0  0  0  0  0  0  0  0  0
   20.1097  -43.0160   48.0481 C   0  0  0  0  0  0  0  0  0  0  0  0
   20.4934  -44.0929   47.1963 O   0  0  0  0  0  0  0  0  0  0  0  0
   21.8684  -43.9698   46.8542 C   0  0  0  0  0  0  0  0  0  0  0  0
   22.2499  -45.0321   45.9955 O   0  0  0  0  0  0  0  0  0  0  0  0
   23.6310  -44.9228   45.6925 C   0  0  0  0  0  0  0  0  0  0  0  0
   24.4495  -44.9792   46.8566 O   0  0  0  0  0  0  0  0  0  0  0  0
   24.2383  -46.1981   47.5622 C   0  0  0  0  0  0  0  0  0  0  0  0
    4.4330    5.1350   -2.5201 H   0  0  0  0  0  0  0  0  0  0  0  0
    4.7210    3.9793   -0.5236 H   0  0  0  0  0  0  0  0  0  0  0  0
    3.8525    3.1215   -1.8159 H   0  0  0  0  0  0  0  0  0  0  0  0
    2.5516    4.7015    0.4862 H   0  0  0  0  0  0  0  0  0  0  0  0
    1.3323    3.0977   -1.8157 H   0  0  0  0  0  0  0  0  0  0  0  0
    0.9968    4.7856   -1.3804 H   0  0  0  0  0  0  0  0  0  0  0  0
   -0.5964    2.7858   -0.4716 H   0  0  0  0  0  0  0  0  0  0  0  0
   -0.1934    4.1489    0.5794 H   0  0  0  0  0  0  0  0  0  0  0  0
    0.6668    1.3507    0.8555 H   0  0  0  0  0  0  0  0  0  0  0  0
    0.7621    2.6798    2.0073 H   0  0  0  0  0  0  0  0  0  0  0  0
    2.7752    1.6835    0.0042 H   0  0  0  0  0  0  0  0  0  0  0  0
    3.0663    3.3866    2.5382 H   0  0  0  0  0  0  0  0  0  0  0  0
    4.3994    2.6649    1.6353 H   0  0  0  0  0  0  0  0  0  0  0  0
    3.5048    0.3982    2.0415 H   0  0  0  0  0  0  0  0  0  0  0  0
    2.1176    1.0546    2.9122 H   0  0  0  0  0  0  0  0  0  0  0  0
    3.7076    2.0522    4.6014 H   0  0  0  0  0  0  0  0  0  0  0  0
    5.0452    1.3070    3.7130 H   0  0  0  0  0  0  0  0  0  0  0  0
    3.9993   -0.9486    4.0008 H   0  0  0  0  0  0  0  0  0  0  0  0
    2.6574   -0.2182    4.8869 H   0  0  0  0  0  0  0  0  0  0  0  0
    4.2603    0.6749    6.5805 H   0  0  0  0  0  0  0  0  0  0  0  0
    5.6025   -0.0565    5.6940 H   0  0  0  0  0  0  0  0  0  0  0  0
    4.5683   -2.3166    6.0013 H   0  0  0  0  0  0  0  0  0  0  0  0
    3.2310   -1.5821    6.8918 H   0  0  0  0  0  0  0  0  0  0  0  0
    4.8495   -0.6594    8.5629 H   0  0  0  0  0  0  0  0  0  0  0  0
    6.1870   -1.3922    7.6730 H   0  0  0  0  0  0  0  0  0  0  0  0
    5.1696   -3.6535    8.0057 H   0  0  0  0  0  0  0  0  0  0  0  0
    3.8319   -2.9200    8.8962 H   0  0  0  0  0  0  0  0  0  0  0  0
    5.4514   -1.9909   10.5633 H   0  0  0  0  0  0  0  0  0  0  0  0
    6.7887   -2.7242    9.6729 H   0  0  0  0  0  0  0  0  0  0  0  0
    5.7718   -4.9862   10.0083 H   0  0  0  0  0  0  0  0  0  0  0  0
    4.4343   -4.2529   10.8987 H   0  0  0  0  0  0  0  0  0  0  0  0
    6.0524   -3.3259   12.5672 H   0  0  0  0  0  0  0  0  0  0  0  0
    7.3907   -4.0571   11.6765 H   0  0  0  0  0  0  0  0  0  0  0  0
    6.3762   -6.3206   12.0101 H   0  0  0  0  0  0  0  0  0  0  0  0
    5.0379   -5.5895   12.9009 H   0  0  0  0  0  0  0  0  0  0  0  0
    6.6557   -4.6617   14.5700 H   0  0  0  0  0  0  0  0  0  0  0  0
    7.9940   -5.3928   13.6792 H   0  0  0  0  0  0  0  0  0  0  0  0
    6.9797   -7.6564   14.0129 H   0  0  0  0  0  0  0  0  0  0  0  0
    5.6413   -6.9253   14.9037 H   0  0  0  0  0  0  0  0  0  0  0  0
    7.2592   -5.9975   16.5729 H   0  0  0  0  0  0  0  0  0  0  0  0
    8.5975   -6.7286   15.6821 H   0  0  0  0  0  0  0  0  0  0  0  0
    7.5832   -8.9922   16.0159 H   0  0  0  0  0  0  0  0  0  0  0  0
    6.2449   -8.2612   16.9067 H   0  0  0  0  0  0  0  0  0  0  0  0
    7.8627   -7.3334   18.5759 H   0  0  0  0  0  0  0  0  0  0  0  0
    9.2010   -8.0645   17.6851 H   0  0  0  0  0  0  0  0  0  0  0  0
    8.1866  -10.3281   18.0188 H   0  0  0  0  0  0  0  0  0  0  0  0
    6.8567   -9.5974   18.9048 H   0  0  0  0  0  0  0  0  0  0  0  0
    8.4664   -8.6692   20.5786 H   0  0  0  0  0  0  0  0  0  0  0  0
    9.8048   -9.4001   19.6875 H   0  0  0  0  0  0  0  0  0  0  0  0
    8.7900  -11.6640   20.0219 H   0  0  0  0  0  0  0  0  0  0  0  0
    7.4515  -10.9328   20.9124 H   0  0  0  0  0  0  0  0  0  0  0  0
    9.0706  -10.0043   22.5812 H   0  0  0  0  0  0  0  0  0  0  0  0
   10.4080  -10.7374   21.6907 H   0  0  0  0  0  0  0  0  0  0  0  0
    9.3911  -12.9997   22.0261 H   0  0  0  0  0  0  0  0  0  0  0  0
    8.0536  -12.2665   22.9165 H   0  0  0  0  0  0  0  0  0  0  0  0
    9.6717  -11.3395   24.5851 H   0  0  0  0  0  0  0  0  0  0  0  0
   11.0099  -12.0707   23.6944 H   0  0  0  0  0  0  0  0  0  0  0  0
    9.9955  -14.3341   24.0280 H   0  0  0  0  0  0  0  0  0  0  0  0
    8.6570  -13.6028   24.9188 H   0  0  0  0  0  0  0  0  0  0  0  0
   10.2763  -12.6732   26.5857 H   0  0  0  0  0  0  0  0  0  0  0  0
   11.6129  -13.4059   25.6958 H   0  0  0  0  0  0  0  0  0  0  0  0
   10.5955  -15.6676   26.0289 H   0  0  0  0  0  0  0  0  0  0  0  0
    9.2578  -14.9343   26.9194 H   0  0  0  0  0  0  0  0  0  0  0  0
   10.8757  -14.0053   28.5864 H   0  0  0  0  0  0  0  0  0  0  0  0
   12.2144  -14.7366   27.6952 H   0  0  0  0  0  0  0  0  0  0  0  0
   11.1940  -16.9980   28.0198 H   0  0  0  0  0  0  0  0  0  0  0  0
    9.8569  -16.2661   28.9126 H   0  0  0  0  0  0  0  0  0  0  0  0
   11.4755  -15.3394   30.5783 H   0  0  0  0  0  0  0  0  0  0  0  0
   12.8134  -16.0695   29.6850 H   0  0  0  0  0  0  0  0  0  0  0  0
   11.7871  -18.3299   29.9939 H   0  0  0  0  0  0  0  0  0  0  0  0
   10.4484  -17.5994   30.8880 H   0  0  0  0  0  0  0  0  0  0  0  0
   12.0784  -16.6701   32.5547 H   0  0  0  0  0  0  0  0  0  0  0  0
   13.4061  -17.3944   31.6680 H   0  0  0  0  0  0  0  0  0  0  0  0
   12.4110  -19.6613   31.9950 H   0  0  0  0  0  0  0  0  0  0  0  0
   11.0566  -18.9226   32.8991 H   0  0  0  0  0  0  0  0  0  0  0  0
   14.2777  -21.5309   39.8550 H   0  0  0  0  0  0  0  0  0  0  0  0
   15.6337  -22.2687   38.9530 H   0  0  0  0  0  0  0  0  0  0  0  0
   14.6119  -24.5213   39.2962 H   0  0  0  0  0  0  0  0  0  0  0  0
   13.2844  -23.7971   40.1823 H   0  0  0  0  0  0  0  0  0  0  0  0
   14.9030  -22.8596   41.8556 H   0  0  0  0  0  0  0  0  0  0  0  0
   16.2415  -23.5896   40.9621 H   0  0  0  0  0  0  0  0  0  0  0  0
   15.2158  -25.8499   41.2726 H   0  0  0  0  0  0  0  0  0  0  0  0
   13.8776  -25.1201   42.1658 H   0  0  0  0  0  0  0  0  0  0  0  0
   15.4961  -24.1918   43.8320 H   0  0  0  0  0  0  0  0  0  0  0  0
   16.8343  -24.9215   42.9387 H   0  0  0  0  0  0  0  0  0  0  0  0
   15.8193  -27.1849   43.2646 H   0  0  0  0  0  0  0  0  0  0  0  0
   14.4807  -26.4550   44.1564 H   0  0  0  0  0  0  0  0  0  0  0  0
   16.0961  -25.5266   45.8259 H   0  0  0  0  0  0  0  0  0  0  0  0
   17.4379  -26.2563   44.9354 H   0  0  0  0  0  0  0  0  0  0  0  0
   16.4196  -28.5201   45.2618 H   0  0  0  0  0  0  0  0  0  0  0  0
   15.0818  -27.7899   46.1546 H   0  0  0  0  0  0  0  0  0  0  0  0
   16.7005  -26.8629   47.8223 H   0  0  0  0  0  0  0  0  0  0  0  0
   18.0384  -27.5926   46.9293 H   0  0  0  0  0  0  0  0  0  0  0  0
   17.0244  -29.8579   47.2624 H   0  0  0  0  0  0  0  0  0  0  0  0
   15.6879  -29.1274   48.1569 H   0  0  0  0  0  0  0  0  0  0  0  0
   17.3103  -28.1956   49.8193 H   0  0  0  0  0  0  0  0  0  0  0  0
   18.6465  -28.9259   48.9244 H   0  0  0  0  0  0  0  0  0  0  0  0
   17.6377  -31.1908   49.2654 H   0  0  0  0  0  0  0  0  0  0  0  0
   16.2994  -30.4611   50.1569 H   0  0  0  0  0  0  0  0  0  0  0  0
   17.9127  -29.5310   51.8236 H   0  0  0  0  0  0  0  0  0  0  0  0
   19.2578  -30.2488   50.9297 H   0  0  0  0  0  0  0  0  0  0  0  0
   18.2412  -32.5096   51.2510 H   0  0  0  0  0  0  0  0  0  0  0  0
   16.9094  -31.7755   52.1455 H   0  0  0  0  0  0  0  0  0  0  0  0
   18.5221  -30.8745   53.8431 H   0  0  0  0  0  0  0  0  0  0  0  0
   19.8562  -31.6174   52.9430 H   0  0  0  0  0  0  0  0  0  0  0  0
   17.4907  -33.1160   54.1833 H   0  0  0  0  0  0  0  0  0  0  0  0
   19.1542  -33.0503   54.8378 H   0  0  0  0  0  0  0  0  0  0  0  0
   17.6735  -35.4620   53.9436 H   0  0  0  0  0  0  0  0  0  0  0  0
   19.3192  -35.3746   54.6352 H   0  0  0  0  0  0  0  0  0  0  0  0
   21.1164  -36.3315   53.4107 H   0  0  0  0  0  0  0  0  0  0  0  0
   20.6879  -35.3470   51.9908 H   0  0  0  0  0  0  0  0  0  0  0  0
   20.2892  -36.3721   49.9491 H   0  0  0  0  0  0  0  0  0  0  0  0
   19.0640  -37.4510   50.6931 H   0  0  0  0  0  0  0  0  0  0  0  0
   19.9245  -37.4525   47.8863 H   0  0  0  0  0  0  0  0  0  0  0  0
   18.6949  -38.4770   48.6689 H   0  0  0  0  0  0  0  0  0  0  0  0
   18.8661  -40.7942   48.5039 H   0  0  0  0  0  0  0  0  0  0  0  0
   20.5402  -40.7467   49.1514 H   0  0  0  0  0  0  0  0  0  0  0  0
   19.0532  -43.1463   48.2969 H   0  0  0  0  0  0  0  0  0  0  0  0
   20.6992  -43.0524   48.9747 H   0  0  0  0  0  0  0  0  0  0  0  0
   22.4544  -43.9904   47.7815 H   0  0  0  0  0  0  0  0  0  0  0  0
   22.0449  -43.0209   46.3351 H   0  0  0  0  0  0  0  0  0  0  0  0
   23.8170  -43.9778   45.1702 H   0  0  0  0  0  0  0  0  0  0  0  0
   23.9086  -45.7359   45.0156 H   0  0  0  0  0  0  0  0  0  0  0  0
   24.8494  -46.1810   48.4659 H   0  0  0  0  0  0  0  0  0  0  0  0
   24.5315  -47.0422   46.9359 H   0  0  0  0  0  0  0  0  0  0  0  0
   23.1908  -46.3070   47.8676 H   0  0  0  0  0  0  0  0  0  0  0  0
  1  2  1  0  0  0  0
  1 80  1  0  0  0  0
  2  3  1  0  0  0  0
  2 81  1  0  0  0  0
  2 82  1  0  0  0  0
  3  4  1  0  0  0  0
  3  7  1  0  0  0  0
  3 83  1  0  0  0  0
  4  5  1  0  0  0  0
  4 84  1  0  0  0  0
  4 85  1  0  0  0  0
  5  6  1  0  0  0  0
  5 86  1  0  0  0  0
  5 87  1  0  0  0  0
  6  7  1  0  0  0  0
  6 88  1  0  0  0  0
  6 89  1  0  0  0  0
  7  8  1  0  0  0  0
  7 90  1  0  0  0  0
  8  9  1  0  0  0  0
  8 91  1  0  0  0  0
  8 92  1  0  0  0  0
  9 10  1  0  0  0  0
  9 93  1  0  0  0  0
  9 94  1  0  0  0  0
 10 11  1  0  0  0  0
 10 95  1  0  0  0  0
 10 96  1  0  0  0  0
 11 12  1  0  0  0  0
 11 97  1  0  0  0  0
 11 98  1  0  0  0  0
 12 13  1  0  0  0  0
 12 99  1  0  0  0  0
 12100  1  0  0  0  0
 13 14  1  0  0  0  0
 13101  1  0  0  0  0
 13102  1  0  0  0  0
 14 15  1  0  0  0  0
 14103  1  0  0  0  0
 14104  1  0  0  0  0
 15 16  1  0  0  0  0
 15105  1  0  0  0  0
 15106  1  0  0  0  0
 16 17  1  0  0  0  0
 16107  1  0  0  0  0
 16108  1  0  0  0  0
 17 18  1  0  0  0  0
 17109  1  0  0  0  0
 17110  1  0  0  0  0
 18 19  1  0  0  0  0
 18111  1  0  0  0  0
 18112  1  0  0  0  0
 19 20  1  0  0  0  0
 19113  1  0  0  0  0
 19114  1  0  0  0  0
 20 21  1  0  0  0  0
 20115  1  0  0  0  0
 20116  1  0  0  0  0
 21 22  1  0  0  0  0
 21117  1  0  0  0  0
 21118  1  0  0  0  0
 22 23  1  0  0  0  0
 22119  1  0  0  0  0
 22120  1  0  0  0  0
 23 24  1  0  0  0  0
 23121  1  0  0  0  0
 23122  1  0  0  0  0
 24 25  1  0  0  0  0
 24123  1  0  0  0  0
 24124  1  0  0  0  0
 25 26  1  0  0  0  0
 25125  1  0  0  0  0
 25126  1  0  0  0  0
 26 27  1  0  0  0  0
 26127  1  0  0  0  0
 26128  1  0  0  0  0
 27 28  1  0  0  0  0
 27129  1  0  0  0  0
 27130  1  0  0  0  0
 28 29  1  0  0  0  0
 28131  1  0  0  0  0
 28132  1  0  0  0  0
 29 30  1  0  0  0  0
 29133  1  0  0  0  0
 29134  1  0  0  0  0
 30 31  1  0  0  0  0
 30135  1  0  0  0  0
 30136  1  0  0  0  0
 31 32  1  0  0  0  0
 31137  1  0  0  0  0
 31138  1  0  0  0  0
 32 33  1  0  0  0  0
 32139  1  0  0  0  0
 32140  1  0  0  0  0
 33 34  1  0  0  0  0
 33141  1  0  0  0  0
 33142  1  0  0  0  0
 34 35  1  0  0  0  0
 34143  1  0  0  0  0
 34144  1  0  0  0  0
 35 36  1  0  0  0  0
 35145  1  0  0  0  0
 35146  1  0  0  0  0
 36 37  1  0  0  0  0
 36147  1  0  0  0  0
 36148  1  0  0  0  0
 37 38  1  0  0  0  0
 37149  1  0  0  0  0
 37150  1  0  0  0  0
 38 39  1  0  0  0  0
 38151  1  0  0  0  0
 38152  1  0  0  0  0
 39 40  1  0  0  0  0
 39153  1  0  0  0  0
 39154  1  0  0  0  0
 40 41  1  0  0  0  0
 41 42  1  0  0  0  0
 42 43  1  0  0  0  0
 43 44  1  0  0  0  0
 44 45  1  0  0  0  0
 45 46  1  0  0  0  0
 46 47  1  0  0  0  0
 46155  1  0  0  0  0
 46156  1  0  0  0  0
 47 48  1  0  0  0  0
 47157  1  0  0  0  0
 47158  1  0  0  0  0
 48 49  1  0  0  0  0
 48159  1  0  0  0  0
 48160  1  0  0  0  0
 49 50  1  0  0  0  0
 49161  1  0  0  0  0
 49162  1  0  0  0  0
 50 51  1  0  0  0  0
 50163  1  0  0  0  0
 50164  1  0  0  0  0
 51 52  1  0  0  0  0
 51165  1  0  0  0  0
 51166  1  0  0  0  0
 52 53  1  0  0  0  0
 52167  1  0  0  0  0
 52168  1  0  0  0  0
 53 54  1  0  0  0  0
 53169  1  0  0  0  0
 53170  1  0  0  0  0
 54 55  1  0  0  0  0
 54171  1  0  0  0  0
 54172  1  0  0  0  0
 55 56  1  0  0  0  0
 55173  1  0  0  0  0
 55174  1  0  0  0  0
 56 57  1  0  0  0  0
 56175  1  0  0  0  0
 56176  1  0  0  0  0
 57 58  1  0  0  0  0
 57177  1  0  0  0  0
 57178  1  0  0  0  0
 58 59  1  0  0  0  0
 58179  1  0  0  0  0
 58180  1  0  0  0  0
 59 60  1  0  0  0  0
 59181  1  0  0  0  0
 59182  1  0  0  0  0
 60 61  1  0  0  0  0
 60183  1  0  0  0  0
 60184  1  0  0  0  0
 61 62  1  0  0  0  0
 61185  1  0  0  0  0
 61186  1  0  0  0  0
 62 63  1  0  0  0  0
 63 64  1  0  0  0  0
 63187  1  0  0  0  0
 63188  1  0  0  0  0
 64 65  1  0  0  0  0
 65 66  1  0  0  0  0
 65189  1  0  0  0  0
 65190  1  0  0  0  0
 66 67  1  0  0  0  0
 67 68  1  0  0  0  0
 67191  1  0  0  0  0
 67192  1  0  0  0  0
 68 69  1  0  0  0  0
 69 70  1  0  0  0  0
 69193  1  0  0  0  0
 69194  1  0  0  0  0
 70 71  1  0  0  0  0
 71 72  1  0  0  0  0
 71195  1  0  0  0  0
 71196  1  0  0  0  0
 72 73  1  0  0  0  0
 73 74  1  0  0  0  0
 73197  1  0  0  0  0
 73198  1  0  0  0  0
 74 75  1  0  0  0  0
 75 76  1  0  0  0  0
 75199  1  0  0  0  0
 75200  1  0  0  0  0
 76 77  1  0  0  0  0
 77 78  1  0  0  0  0
 77201  1  0  0  0  0
 77202  1  0  0  0  0
 78 79  1  0  0  0  0
 79203  1  0  0  0  0
 79204  1  0  0  0  0
 79205  1  0  0  0  0
M  END
$$$$
