
 OpenBabel04232216433D

 92 92  0  0  0  0  0  0  0  0999 V2000
 -199.1621   18.8954  245.3707 C   0  0  0  0  0  0  0  0  0  0  0  0
 -201.8013   18.5263  243.8657 C   0  0  0  0  0  0  0  0  0  0  0  0
 -204.1701   18.1217  242.5963 C   0  0  0  0  0  0  0  0  0  0  0  0
 -206.7248   17.7980  241.2654 C   0  0  0  0  0  0  0  0  0  0  0  0
 -208.9399   17.4907  240.2922 C   0  0  0  0  0  0  0  0  0  0  0  0
 -211.3158   17.0362  240.1410 C   0  0  0  0  0  0  0  0  0  0  0  0
 -211.6070   18.0961  240.8619 C   0  0  0  0  0  0  0  0  0  0  0  0
 -210.6354   17.1038  241.3721 C   0  0  0  0  0  0  0  0  0  0  0  0
 -209.6405   18.3124  241.7126 C   0  0  0  0  0  0  0  0  0  0  0  0
 -209.3891   17.1381  242.4355 C   0  0  0  0  0  0  0  0  0  0  0  0
 -208.3222   18.2704  242.4201 C   0  0  0  0  0  0  0  0  0  0  0  0
 -207.0023   18.1587  243.3204 C   0  0  0  0  0  0  0  0  0  0  0  0
 -205.8504   19.0761  243.6400 C   0  0  0  0  0  0  0  0  0  0  0  0
 -205.4632   18.0039  244.3777 C   0  0  0  0  0  0  0  0  0  0  0  0
 -204.1918   18.7758  244.7656 C   0  0  0  0  0  0  0  0  0  0  0  0
 -202.5958   19.0924  245.7757 C   0  0  0  0  0  0  0  0  0  0  0  0
 -201.3639   20.2244  245.5784 C   0  0  0  0  0  0  0  0  0  0  0  0
 -200.5904   19.1820  246.9325 C   0  0  0  0  0  0  0  0  0  0  0  0
 -199.4075   19.7123  247.5254 C   0  0  0  0  0  0  0  0  0  0  0  0
 -198.8478   18.8560  248.5666 C   0  0  0  0  0  0  0  0  0  0  0  0
 -197.9488   20.0167  248.4854 C   0  0  0  0  0  0  0  0  0  0  0  0
 -196.6386   19.6649  248.8471 C   0  0  0  0  0  0  0  0  0  0  0  0
 -195.7180   20.4449  248.4168 C   0  0  0  0  0  0  0  0  0  0  0  0
 -195.4958   20.2071  249.8847 C   0  0  0  0  0  0  0  0  0  0  0  0
 -194.6364   21.5033  249.4835 C   0  0  0  0  0  0  0  0  0  0  0  0
 -193.5010   21.0089  250.7400 C   0  0  0  0  0  0  0  0  0  0  0  0
 -192.1453   21.8669  250.7227 C   0  0  0  0  0  0  0  0  0  0  0  0
 -191.5026   20.7376  252.2130 C   0  0  0  0  0  0  0  0  0  0  0  0
 -190.3962   21.1538  252.6888 C   0  0  0  0  0  0  0  0  0  0  0  0
 -188.9707   22.4497  251.8864 C   0  0  0  0  0  0  0  0  0  0  0  0
 -187.2973   22.5216  251.5893 C   0  0  0  0  0  0  0  0  0  0  0  0
 -186.3243   21.2572  252.2571 C   0  0  0  0  0  0  0  0  0  0  0  0
 -185.1906   22.3793  252.6925 C   0  0  0  0  0  0  0  0  0  0  0  0
 -184.1147   22.3388  253.5328 C   0  0  0  0  0  0  0  0  0  0  0  0
 -182.9304   22.7222  253.8388 C   0  0  0  0  0  0  0  0  0  0  0  0
 -183.1143   21.0408  254.6415 C   0  0  0  0  0  0  0  0  0  0  0  0
 -181.9203   21.5342  255.0736 C   0  0  0  0  0  0  0  0  0  0  0  0
 -180.8417   21.7333  256.5987 C   0  0  0  0  0  0  0  0  0  0  0  0
 -180.4803   23.1233  255.8542 C   0  0  0  0  0  0  0  0  0  0  0  0
 -182.7935   23.0282  255.9353 C   0  0  0  0  0  0  0  0  0  0  0  0
 -185.0095   22.2753  254.9560 C   0  0  0  0  0  0  0  0  0  0  0  0
 -187.3172   21.5296  253.6358 C   0  0  0  0  0  0  0  0  0  0  0  0
 -189.2167   20.7199  251.9061 C   0  0  0  0  0  0  0  0  0  0  0  0
 -191.7640   20.1873  250.1387 C   0  0  0  0  0  0  0  0  0  0  0  0
 -194.1139   19.7593  248.4792 C   0  0  0  0  0  0  0  0  0  0  0  0
 -196.7067   19.3723  246.7813 C   0  0  0  0  0  0  0  0  0  0  0  0
 -200.7706   19.0163  244.6962 H   0  0  0  0  0  0  0  0  0  0  0  0
 -203.5398   18.5764  243.0264 H   0  0  0  0  0  0  0  0  0  0  0  0
 -205.8508   18.1304  241.6168 H   0  0  0  0  0  0  0  0  0  0  0  0
 -208.4422   17.5331  240.2859 H   0  0  0  0  0  0  0  0  0  0  0  0
 -210.7398   17.7772  239.4497 H   0  0  0  0  0  0  0  0  0  0  0  0
 -213.0573   16.4939  239.6554 H   0  0  0  0  0  0  0  0  0  0  0  0
 -211.0786   18.9890  239.8858 H   0  0  0  0  0  0  0  0  0  0  0  0
 -209.9301   18.2823  241.2185 H   0  0  0  0  0  0  0  0  0  0  0  0
 -209.2597   19.1236  240.3542 H   0  0  0  0  0  0  0  0  0  0  0  0
 -210.4120   17.8084  242.7320 H   0  0  0  0  0  0  0  0  0  0  0  0
 -208.0346   19.2123  241.2226 H   0  0  0  0  0  0  0  0  0  0  0  0
 -207.6774   17.2287  243.4329 H   0  0  0  0  0  0  0  0  0  0  0  0
 -205.3264   19.7505  242.6132 H   0  0  0  0  0  0  0  0  0  0  0  0
 -205.4981   17.0152  244.5949 H   0  0  0  0  0  0  0  0  0  0  0  0
 -203.7252   19.7717  243.7071 H   0  0  0  0  0  0  0  0  0  0  0  0
 -203.1485   19.0731  244.9114 H   0  0  0  0  0  0  0  0  0  0  0  0
 -201.1721   20.5820  244.0886 H   0  0  0  0  0  0  0  0  0  0  0  0
 -200.7419   17.9465  246.5558 H   0  0  0  0  0  0  0  0  0  0  0  0
 -198.6594   20.6471  246.4904 H   0  0  0  0  0  0  0  0  0  0  0  0
 -198.4813   18.2958  247.7627 H   0  0  0  0  0  0  0  0  0  0  0  0
 -197.4557   20.8852  247.2610 H   0  0  0  0  0  0  0  0  0  0  0  0
 -196.4217   20.3998  248.0042 H   0  0  0  0  0  0  0  0  0  0  0  0
 -195.3618   21.1602  247.4296 H   0  0  0  0  0  0  0  0  0  0  0  0
 -194.8699   19.3081  250.4622 H   0  0  0  0  0  0  0  0  0  0  0  0
 -193.3607   21.5846  248.7611 H   0  0  0  0  0  0  0  0  0  0  0  0
 -192.8730   19.8781  251.3718 H   0  0  0  0  0  0  0  0  0  0  0  0
 -190.8323   21.8784  250.0458 H   0  0  0  0  0  0  0  0  0  0  0  0
 -190.8852   19.6771  252.8631 H   0  0  0  0  0  0  0  0  0  0  0  0
 -189.4333   21.9310  251.4826 H   0  0  0  0  0  0  0  0  0  0  0  0
 -189.3526   21.9531  253.2212 H   0  0  0  0  0  0  0  0  0  0  0  0
 -186.7469   22.6209  252.4405 H   0  0  0  0  0  0  0  0  0  0  0  0
 -187.0122   20.2504  253.4773 H   0  0  0  0  0  0  0  0  0  0  0  0
 -184.6876   23.0874  253.2799 H   0  0  0  0  0  0  0  0  0  0  0  0
 -183.8064   23.4714  254.5577 H   0  0  0  0  0  0  0  0  0  0  0  0
 -182.1854   23.4935  254.3640 H   0  0  0  0  0  0  0  0  0  0  0  0
 -182.8988   20.5634  255.7414 H   0  0  0  0  0  0  0  0  0  0  0  0
 -181.0421   21.7820  255.6732 H   0  0  0  0  0  0  0  0  0  0  0  0
 -180.3873   21.2916  257.9461 H   0  0  0  0  0  0  0  0  0  0  0  0
 -179.0103   23.4710  256.2886 H   0  0  0  0  0  0  0  0  0  0  0  0
 -181.0251   23.7076  256.5964 H   0  0  0  0  0  0  0  0  0  0  0  0
 -183.1699   22.6279  256.0457 H   0  0  0  0  0  0  0  0  0  0  0  0
 -185.7084   21.9333  254.7676 H   0  0  0  0  0  0  0  0  0  0  0  0
 -188.0376   21.4809  253.2551 H   0  0  0  0  0  0  0  0  0  0  0  0
 -190.3090   20.8555  250.9328 H   0  0  0  0  0  0  0  0  0  0  0  0
 -192.7573   19.7441  249.6253 H   0  0  0  0  0  0  0  0  0  0  0  0
 -198.3324   19.4228  246.2994 H   0  0  0  0  0  0  0  0  0  0  0  0
  1  2  1  0  0  0  0
  1 46  2  3  0  0  0
  1 47  1  0  0  0  0
  2  3  2  3  0  0  0
  2 48  1  0  0  0  0
  3  4  1  0  0  0  0
  3 49  1  0  0  0  0
  4  5  2  3  0  0  0
  4 50  1  0  0  0  0
  5  6  1  0  0  0  0
  5 51  1  0  0  0  0
  6  7  2  3  0  0  0
  6 52  1  0  0  0  0
  7  8  1  0  0  0  0
  7 53  1  0  0  0  0
  8  9  2  3  0  0  0
  8 54  1  0  0  0  0
  9 10  1  0  0  0  0
  9 55  1  0  0  0  0
 10 11  2  3  0  0  0
 10 56  1  0  0  0  0
 11 12  1  0  0  0  0
 11 57  1  0  0  0  0
 12 13  2  3  0  0  0
 12 58  1  0  0  0  0
 13 14  1  0  0  0  0
 13 59  1  0  0  0  0
 14 15  2  3  0  0  0
 14 60  1  0  0  0  0
 15 16  1  0  0  0  0
 15 61  1  0  0  0  0
 16 17  2  3  0  0  0
 16 62  1  0  0  0  0
 17 18  1  0  0  0  0
 17 63  1  0  0  0  0
 18 19  2  3  0  0  0
 18 64  1  0  0  0  0
 19 20  1  0  0  0  0
 19 65  1  0  0  0  0
 20 21  2  3  0  0  0
 20 66  1  0  0  0  0
 21 22  1  0  0  0  0
 21 67  1  0  0  0  0
 22 23  2  3  0  0  0
 22 68  1  0  0  0  0
 23 24  1  0  0  0  0
 23 69  1  0  0  0  0
 24 25  2  3  0  0  0
 24 70  1  0  0  0  0
 25 26  1  0  0  0  0
 25 71  1  0  0  0  0
 26 27  2  3  0  0  0
 26 72  1  0  0  0  0
 27 28  1  0  0  0  0
 27 73  1  0  0  0  0
 28 29  2  3  0  0  0
 28 74  1  0  0  0  0
 29 30  1  0  0  0  0
 29 75  1  0  0  0  0
 30 31  2  3  0  0  0
 30 76  1  0  0  0  0
 31 32  1  0  0  0  0
 31 77  1  0  0  0  0
 32 33  2  3  0  0  0
 32 78  1  0  0  0  0
 33 34  1  0  0  0  0
 33 79  1  0  0  0  0
 34 35  2  3  0  0  0
 34 80  1  0  0  0  0
 35 36  1  0  0  0  0
 35 81  1  0  0  0  0
 36 37  2  3  0  0  0
 36 82  1  0  0  0  0
 37 38  1  0  0  0  0
 37 83  1  0  0  0  0
 38 39  2  3  0  0  0
 38 84  1  0  0  0  0
 39 40  1  0  0  0  0
 39 85  1  0  0  0  0
 40 41  2  3  0  0  0
 40 86  1  0  0  0  0
 41 42  1  0  0  0  0
 41 87  1  0  0  0  0
 42 43  2  3  0  0  0
 42 88  1  0  0  0  0
 43 44  1  0  0  0  0
 43 89  1  0  0  0  0
 44 45  2  3  0  0  0
 44 90  1  0  0  0  0
 45 46  1  0  0  0  0
 45 91  1  0  0  0  0
 46 92  1  0  0  0  0
M  END
$$$$
