
 OpenBabel04232216393D

 93 93  0  0  0  0  0  0  0  0999 V2000
   -6.9236  138.4671 -107.1333 C   0  0  0  0  0  0  0  0  0  0  0  0
   -8.0371  135.5385 -107.8487 C   0  0  0  0  0  3  0  0  0  0  0  0
   -9.1856  132.6645 -108.8615 C   0  0  0  0  0  0  0  0  0  0  0  0
  -10.1369  130.2288 -109.7870 C   0  0  0  0  0  0  0  0  0  0  0  0
  -11.1420  127.5613 -110.6939 C   0  0  0  0  0  0  0  0  0  0  0  0
  -11.9013  125.5113 -111.6954 C   0  0  0  0  0  0  0  0  0  0  0  0
  -10.7458  123.8070 -112.5694 C   0  0  0  0  0  0  0  0  0  0  0  0
  -10.2381  124.4546 -111.6269 C   0  0  0  0  0  0  0  0  0  0  0  0
  -10.2934  126.0714 -112.2784 C   0  0  0  0  0  0  0  0  0  0  0  0
  -10.4442  127.5881 -112.3451 C   0  0  0  0  0  0  0  0  0  0  0  0
   -9.2289  127.3531 -111.6927 C   0  0  0  0  0  0  0  0  0  0  0  0
   -8.8925  128.8471 -111.2687 C   0  0  0  0  0  0  0  0  0  0  0  0
   -7.7027  129.9030 -110.2043 C   0  0  0  0  0  0  0  0  0  0  0  0
   -8.1436  131.3054 -110.5121 C   0  0  0  0  0  0  0  0  0  0  0  0
   -7.3859  132.7587 -109.8596 C   0  0  0  0  0  0  0  0  0  0  0  0
   -7.6853  134.0570 -110.2138 C   0  0  0  0  0  0  0  0  0  0  0  0
   -6.3183  134.8584 -109.9372 C   0  0  0  0  0  0  0  0  0  0  0  0
   -6.6348  136.3230 -109.6572 C   0  0  0  0  0  0  0  0  0  0  0  0
   -5.7888  137.5051 -108.8664 C   0  0  0  0  0  0  0  0  0  0  0  0
   -5.9005  138.9338 -108.7899 C   0  0  0  0  0  0  0  0  0  0  0  0
   -4.6866  139.2987 -108.1379 C   0  0  0  0  0  0  0  0  0  0  0  0
   -4.9246  140.7390 -108.5802 C   0  0  0  0  0  0  0  0  0  0  0  0
   -4.0559  141.5246 -107.4457 C   0  0  0  0  0  0  0  0  0  0  0  0
   -4.2897  142.7839 -107.6226 C   0  0  0  0  0  0  0  0  0  0  0  0
   -3.3237  143.5039 -106.9205 C   0  0  0  0  0  0  0  0  0  0  0  0
   -3.2278  144.8125 -107.2287 C   0  0  0  0  0  0  0  0  0  0  0  0
   -2.2202  145.3621 -106.2024 C   0  0  0  0  0  0  0  0  0  0  0  0
   -1.8864  146.6423 -105.9104 C   0  0  0  0  0  0  0  0  0  0  0  0
   -0.8002  147.1583 -104.6127 C   0  0  0  0  0  0  0  0  0  0  0  0
   -0.8141  148.6410 -105.1602 C   0  0  0  0  0  0  0  0  0  0  0  0
   -0.0449  150.2563 -104.8078 C   0  0  0  0  0  0  0  0  0  0  0  0
   -0.0773  151.7056 -105.0381 C   0  0  0  0  0  0  0  0  0  0  0  0
    0.9464  152.1605 -104.1812 C   0  0  0  0  0  0  0  0  0  0  0  0
    0.4287  153.2861 -104.8066 C   0  0  0  0  0  0  0  0  0  0  0  0
    0.8193  154.2989 -104.1235 C   0  0  0  0  0  0  0  0  0  0  0  0
    0.7578  155.5129 -104.8298 C   0  0  0  0  0  0  0  0  0  0  0  0
    1.2823  156.5273 -104.2025 C   0  0  0  0  0  0  0  0  0  0  0  0
    2.4514  156.8871 -103.9174 C   0  0  0  0  0  0  0  0  0  0  0  0
    3.1378  157.8657 -103.2113 C   0  0  0  0  0  0  0  0  0  0  0  0
    2.2617  158.8660 -103.1852 C   0  0  0  0  0  0  0  0  0  0  0  0
    1.1143  156.8804 -102.4338 C   0  0  0  0  0  0  0  0  0  0  0  0
   -0.2181  154.8530 -102.8812 C   0  0  0  0  0  0  0  0  0  0  0  0
   -1.3483  152.1797 -103.5682 C   0  0  0  0  0  0  0  0  0  0  0  0
   -2.4403  149.7202 -104.1012 C   0  0  0  0  0  0  0  0  0  0  0  0
   -3.6316  146.7552 -104.8955 C   0  0  0  0  0  0  0  0  0  0  0  0
   -4.7956  144.0361 -105.6730 C   0  0  0  0  0  0  0  0  0  0  0  0
   -5.9569  141.0072 -106.5508 C   0  0  0  0  0  3  0  0  0  0  0  0
   -7.2209  136.8042 -107.7108 H   0  0  0  0  0  0  0  0  0  0  0  0
   -8.5810  133.7379 -108.4921 H   0  0  0  0  0  0  0  0  0  0  0  0
   -9.7705  130.7410 -109.3273 H   0  0  0  0  0  0  0  0  0  0  0  0
  -10.7524  128.2621 -110.2506 H   0  0  0  0  0  0  0  0  0  0  0  0
  -11.5966  125.5849 -111.2196 H   0  0  0  0  0  0  0  0  0  0  0  0
  -12.5417  123.8684 -112.8193 H   0  0  0  0  0  0  0  0  0  0  0  0
  -10.7444  122.9069 -111.5935 H   0  0  0  0  0  0  0  0  0  0  0  0
  -10.9881  124.9338 -112.8387 H   0  0  0  0  0  0  0  0  0  0  0  0
   -9.4300  124.9680 -111.9643 H   0  0  0  0  0  0  0  0  0  0  0  0
  -11.4635  127.4005 -112.5995 H   0  0  0  0  0  0  0  0  0  0  0  0
   -8.8296  126.1914 -112.6180 H   0  0  0  0  0  0  0  0  0  0  0  0
  -10.1338  129.5513 -111.7566 H   0  0  0  0  0  0  0  0  0  0  0  0
   -6.4820  130.5703 -110.3951 H   0  0  0  0  0  0  0  0  0  0  0  0
   -9.3580  131.7259 -111.1748 H   0  0  0  0  0  0  0  0  0  0  0  0
   -7.5589  132.8449 -110.8589 H   0  0  0  0  0  0  0  0  0  0  0  0
   -8.6976  134.1315 -110.7107 H   0  0  0  0  0  0  0  0  0  0  0  0
   -5.7867  133.5932 -109.5158 H   0  0  0  0  0  0  0  0  0  0  0  0
   -7.7378  136.3952 -110.0047 H   0  0  0  0  0  0  0  0  0  0  0  0
   -4.8437  137.5103 -109.2221 H   0  0  0  0  0  0  0  0  0  0  0  0
   -6.8093  138.6987 -109.3912 H   0  0  0  0  0  0  0  0  0  0  0  0
   -4.3657  139.5537 -107.1292 H   0  0  0  0  0  0  0  0  0  0  0  0
   -5.7255  141.8553 -109.1372 H   0  0  0  0  0  0  0  0  0  0  0  0
   -4.6918  142.2099 -106.7904 H   0  0  0  0  0  0  0  0  0  0  0  0
   -5.0861  143.1232 -108.2232 H   0  0  0  0  0  0  0  0  0  0  0  0
   -3.5145  143.2447 -105.8068 H   0  0  0  0  0  0  0  0  0  0  0  0
   -4.1740  145.3224 -107.6135 H   0  0  0  0  0  0  0  0  0  0  0  0
   -1.3541  145.8035 -106.5058 H   0  0  0  0  0  0  0  0  0  0  0  0
   -2.8632  147.3494 -106.6661 H   0  0  0  0  0  0  0  0  0  0  0  0
   -1.6470  147.3225 -104.0203 H   0  0  0  0  0  0  0  0  0  0  0  0
   -1.8710  149.2530 -105.9381 H   0  0  0  0  0  0  0  0  0  0  0  0
   -0.5752  149.9824 -103.9255 H   0  0  0  0  0  0  0  0  0  0  0  0
   -1.0978  152.6860 -105.5228 H   0  0  0  0  0  0  0  0  0  0  0  0
    1.5832  152.7505 -104.6675 H   0  0  0  0  0  0  0  0  0  0  0  0
   -0.5994  154.1197 -105.1784 H   0  0  0  0  0  0  0  0  0  0  0  0
    0.4149  153.8023 -102.5289 H   0  0  0  0  0  0  0  0  0  0  0  0
    0.1178  156.4590 -104.6220 H   0  0  0  0  0  0  0  0  0  0  0  0
    1.9367  155.9457 -102.9198 H   0  0  0  0  0  0  0  0  0  0  0  0
    1.3992  157.9496 -104.0434 H   0  0  0  0  0  0  0  0  0  0  0  0
    4.1735  158.1322 -102.9973 H   0  0  0  0  0  0  0  0  0  0  0  0
    2.0528  160.5734 -103.4603 H   0  0  0  0  0  0  0  0  0  0  0  0
    2.5103  158.3443 -101.9346 H   0  0  0  0  0  0  0  0  0  0  0  0
    0.5652  156.7365 -102.6644 H   0  0  0  0  0  0  0  0  0  0  0  0
   -0.7510  154.0663 -103.2615 H   0  0  0  0  0  0  0  0  0  0  0  0
   -1.6755  151.5325 -103.9906 H   0  0  0  0  0  0  0  0  0  0  0  0
   -2.8594  148.3904 -104.6998 H   0  0  0  0  0  0  0  0  0  0  0  0
   -3.9423  145.6611 -105.6863 H   0  0  0  0  0  0  0  0  0  0  0  0
  1  2  1  0  0  0  0
  1 47  2  3  0  0  0
  1 48  1  0  0  0  0
  2  3  1  0  0  0  0
  2 49  1  0  0  0  0
  3  4  2  3  0  0  0
  3 50  1  0  0  0  0
  4  5  1  0  0  0  0
  4 51  1  0  0  0  0
  5  6  2  3  0  0  0
  5 52  1  0  0  0  0
  6  7  1  0  0  0  0
  6 53  1  0  0  0  0
  7  8  2  3  0  0  0
  7 54  1  0  0  0  0
  8  9  1  0  0  0  0
  8 55  1  0  0  0  0
  9 10  2  3  0  0  0
  9 56  1  0  0  0  0
 10 11  1  0  0  0  0
 10 57  1  0  0  0  0
 11 12  2  3  0  0  0
 11 58  1  0  0  0  0
 12 13  1  0  0  0  0
 12 59  1  0  0  0  0
 13 14  2  3  0  0  0
 13 60  1  0  0  0  0
 14 15  1  0  0  0  0
 14 61  1  0  0  0  0
 15 16  2  3  0  0  0
 15 62  1  0  0  0  0
 16 17  1  0  0  0  0
 16 63  1  0  0  0  0
 17 18  2  3  0  0  0
 17 64  1  0  0  0  0
 18 19  1  0  0  0  0
 18 65  1  0  0  0  0
 19 20  2  3  0  0  0
 19 66  1  0  0  0  0
 20 21  1  0  0  0  0
 20 67  1  0  0  0  0
 21 22  2  3  0  0  0
 21 68  1  0  0  0  0
 22 23  1  0  0  0  0
 22 69  1  0  0  0  0
 23 24  2  3  0  0  0
 23 70  1  0  0  0  0
 24 25  1  0  0  0  0
 24 71  1  0  0  0  0
 25 26  2  3  0  0  0
 25 72  1  0  0  0  0
 26 27  1  0  0  0  0
 26 73  1  0  0  0  0
 27 28  2  3  0  0  0
 27 74  1  0  0  0  0
 28 29  1  0  0  0  0
 28 75  1  0  0  0  0
 29 30  2  3  0  0  0
 29 76  1  0  0  0  0
 30 31  1  0  0  0  0
 30 77  1  0  0  0  0
 31 32  2  3  0  0  0
 31 78  1  0  0  0  0
 32 33  1  0  0  0  0
 32 79  1  0  0  0  0
 33 34  2  3  0  0  0
 33 80  1  0  0  0  0
 34 35  1  0  0  0  0
 34 81  1  0  0  0  0
 35 36  2  3  0  0  0
 35 82  1  0  0  0  0
 36 37  1  0  0  0  0
 36 83  1  0  0  0  0
 37 38  2  3  0  0  0
 37 84  1  0  0  0  0
 38 39  1  0  0  0  0
 38 85  1  0  0  0  0
 39 40  2  3  0  0  0
 39 86  1  0  0  0  0
 40 41  1  0  0  0  0
 40 87  1  0  0  0  0
 41 42  2  3  0  0  0
 41 88  1  0  0  0  0
 42 43  1  0  0  0  0
 42 89  1  0  0  0  0
 43 44  2  3  0  0  0
 43 90  1  0  0  0  0
 44 45  1  0  0  0  0
 44 91  1  0  0  0  0
 45 46  2  3  0  0  0
 45 92  1  0  0  0  0
 46 47  1  0  0  0  0
 46 93  1  0  0  0  0
M  END
$$$$
