
 OpenBabel04232216443D

 57 57  0  0  0  0  0  0  0  0999 V2000
    5.4086    2.6938   -1.8187 C   0  0  0  0  0  0  0  0  0  0  0  0
    5.9709    3.0305   -0.4384 C   0  0  0  0  0  0  0  0  0  0  0  0
    5.0869    2.6760    0.5710 C   0  0  0  0  0  0  0  0  0  0  0  0
    3.6066    3.1312    0.7069 C   0  0  0  0  0  0  0  0  0  0  0  0
    2.3727    2.1964    0.9583 C   0  0  0  0  0  0  0  0  0  0  0  0
    2.2070    1.5206    2.3223 C   0  0  0  0  0  0  0  0  0  0  0  0
    5.3602    1.4027    1.3077 C   0  0  0  0  0  0  0  0  0  0  0  0
    5.7226    0.1713    0.4761 C   0  0  0  0  0  0  0  0  0  0  0  0
    6.4534   -1.0079    1.1285 C   0  0  0  0  0  0  0  0  0  0  0  0
    5.6218    1.5557    2.6274 C   0  0  0  0  0  0  0  0  0  0  0  0
    7.0524    1.5820    2.8788 C   0  0  0  0  0  0  0  0  0  0  0  0
    7.6605    2.7375    2.5857 C   0  0  0  0  0  0  0  0  0  0  0  0
    9.0527    2.8079    2.2411 C   0  0  0  0  0  0  0  0  0  0  0  0
    9.4900    1.7246    1.2685 C   0  0  0  0  0  0  0  0  0  0  0  0
    9.7923    3.8921    2.5988 C   0  0  0  0  0  0  0  0  0  0  0  0
    9.0074    5.2480    2.7545 C   0  0  0  0  0  0  0  0  0  0  0  0
   11.1889    3.9642    2.6562 N   0  0  0  0  0  0  0  0  0  0  0  0
   12.1262    3.0123    2.0101 C   0  0  0  0  0  0  0  0  0  0  0  0
   11.8010    5.1073    3.1687 C   0  0  0  0  0  0  0  0  0  0  0  0
   12.6246    5.8054    2.3673 C   0  0  0  0  0  0  0  0  0  0  0  0
   12.2390    6.2582    1.0161 C   0  0  0  0  0  0  0  0  0  0  0  0
   11.2953    5.9320    0.0815 C   0  0  0  0  0  0  0  0  0  0  0  0
   10.3051    4.9012    0.0051 N   0  0  0  0  0  0  0  0  0  0  0  0
    9.1071    5.1714   -0.4021 N   0  0  0  0  0  0  0  0  0  0  0  0
    8.2031    3.9090   -0.4975 N   0  0  0  0  0  0  0  0  0  0  0  0
    6.9263    4.1315   -0.3655 N   0  0  0  0  0  0  0  0  0  0  0  0
    4.5104    3.2785   -2.0500 H   0  0  0  0  0  0  0  0  0  0  0  0
    5.0967    1.6333   -1.8387 H   0  0  0  0  0  0  0  0  0  0  0  0
    6.1336    2.8174   -2.6172 H   0  0  0  0  0  0  0  0  0  0  0  0
    3.3452    3.6963   -0.1978 H   0  0  0  0  0  0  0  0  0  0  0  0
    3.5887    3.8742    1.5179 H   0  0  0  0  0  0  0  0  0  0  0  0
    2.2812    1.4420    0.1694 H   0  0  0  0  0  0  0  0  0  0  0  0
    1.4823    2.8376    0.8567 H   0  0  0  0  0  0  0  0  0  0  0  0
    2.8572    0.6497    2.4349 H   0  0  0  0  0  0  0  0  0  0  0  0
    1.1797    1.1526    2.4342 H   0  0  0  0  0  0  0  0  0  0  0  0
    2.3851    2.2145    3.1507 H   0  0  0  0  0  0  0  0  0  0  0  0
    6.3369    0.4505   -0.3835 H   0  0  0  0  0  0  0  0  0  0  0  0
    4.7805   -0.2250    0.0782 H   0  0  0  0  0  0  0  0  0  0  0  0
    7.4767   -0.7597    1.3924 H   0  0  0  0  0  0  0  0  0  0  0  0
    6.5216   -1.8374    0.4101 H   0  0  0  0  0  0  0  0  0  0  0  0
    5.9303   -1.3824    2.0169 H   0  0  0  0  0  0  0  0  0  0  0  0
    5.1667    2.4065    3.1415 H   0  0  0  0  0  0  0  0  0  0  0  0
    7.6007    0.6562    2.9917 H   0  0  0  0  0  0  0  0  0  0  0  0
    7.0497    3.6222    2.4432 H   0  0  0  0  0  0  0  0  0  0  0  0
    8.6444    1.2986    0.7136 H   0  0  0  0  0  0  0  0  0  0  0  0
    9.9965    0.9010    1.7765 H   0  0  0  0  0  0  0  0  0  0  0  0
   10.1179    2.1330    0.4611 H   0  0  0  0  0  0  0  0  0  0  0  0
    8.0596    5.2814    2.2374 H   0  0  0  0  0  0  0  0  0  0  0  0
    9.5436    6.0595    2.2914 H   0  0  0  0  0  0  0  0  0  0  0  0
    8.8502    5.4950    3.8201 H   0  0  0  0  0  0  0  0  0  0  0  0
   11.7123    2.0759    1.6727 H   0  0  0  0  0  0  0  0  0  0  0  0
   12.9095    2.7489    2.7142 H   0  0  0  0  0  0  0  0  0  0  0  0
   12.6006    3.4665    1.1301 H   0  0  0  0  0  0  0  0  0  0  0  0
   11.1013    5.7065    3.7463 H   0  0  0  0  0  0  0  0  0  0  0  0
   13.6416    5.4018    2.3491 H   0  0  0  0  0  0  0  0  0  0  0  0
   12.9477    7.0603    0.7562 H   0  0  0  0  0  0  0  0  0  0  0  0
   11.4031    6.4950   -0.8293 H   0  0  0  0  0  0  0  0  0  0  0  0
  1  2  1  0  0  0  0
  1 27  1  0  0  0  0
  1 28  1  0  0  0  0
  1 29  1  0  0  0  0
  2  3  2  3  0  0  0
  2 26  1  0  0  0  0
  3  4  1  0  0  0  0
  3  7  1  0  0  0  0
  4  5  1  0  0  0  0
  4 30  1  0  0  0  0
  4 31  1  0  0  0  0
  5  6  1  0  0  0  0
  5 32  1  0  0  0  0
  5 33  1  0  0  0  0
  6 34  1  0  0  0  0
  6 35  1  0  0  0  0
  6 36  1  0  0  0  0
  7  8  1  0  0  0  0
  7 10  2  3  0  0  0
  8  9  1  0  0  0  0
  8 37  1  0  0  0  0
  8 38  1  0  0  0  0
  9 39  1  0  0  0  0
  9 40  1  0  0  0  0
  9 41  1  0  0  0  0
 10 11  1  0  0  0  0
 10 42  1  0  0  0  0
 11 12  2  3  0  0  0
 11 43  1  0  0  0  0
 12 13  1  0  0  0  0
 12 44  1  0  0  0  0
 13 14  1  0  0  0  0
 13 15  2  3  0  0  0
 14 45  1  0  0  0  0
 14 46  1  0  0  0  0
 14 47  1  0  0  0  0
 15 16  1  0  0  0  0
 15 17  1  0  0  0  0
 16 48  1  0  0  0  0
 16 49  1  0  0  0  0
 16 50  1  0  0  0  0
 17 18  1  0  0  0  0
 17 19  1  0  0  0  0
 18 51  1  0  0  0  0
 18 52  1  0  0  0  0
 18 53  1  0  0  0  0
 19 20  2  3  0  0  0
 19 54  1  0  0  0  0
 20 21  1  0  0  0  0
 20 55  1  0  0  0  0
 21 22  2  3  0  0  0
 21 56  1  0  0  0  0
 22 23  1  0  0  0  0
 22 57  1  0  0  0  0
 23 24  2  3  0  0  0
 24 25  1  0  0  0  0
 25 26  2  3  0  0  0
M  END
$$$$
