
 OpenBabel04232216573D

 56 56  0  0  0  0  0  0  0  0999 V2000
    3.0711    1.3120    0.3542 C   0  0  0  0  0  0  0  0  0  0  0  0
    2.4079    0.1513   -0.1342 O   0  0  0  0  0  0  0  0  0  0  0  0
    3.1867   -0.7232   -0.8408 C   0  0  0  0  0  0  0  0  0  0  0  0
    2.7521   -2.0482   -0.8355 C   0  0  0  0  0  0  0  0  0  0  0  0
    3.4558   -3.0304   -1.5351 C   0  0  0  0  0  0  0  0  0  0  0  0
    4.6033   -2.6945   -2.2645 C   0  0  0  0  0  0  0  0  0  0  0  0
    5.3491   -3.7415   -3.0486 C   0  0  0  0  0  0  0  0  0  0  0  0
    4.7887   -3.8795   -4.4640 C   0  0  0  0  0  0  0  0  0  0  0  0
    5.5276   -4.9572   -5.2575 C   0  0  0  0  0  0  0  0  0  0  0  0
    4.9496   -5.0805   -6.6666 C   0  0  0  0  0  0  0  0  0  0  0  0
    5.6723   -6.1549   -7.4769 C   0  0  0  0  0  0  0  0  0  0  0  0
    5.0752   -6.2729   -8.8791 C   0  0  0  0  0  0  0  0  0  0  0  0
    5.7859   -7.3566   -9.6908 C   0  0  0  0  0  0  0  0  0  0  0  0
    5.1224   -7.4977  -10.9873 N   0  0  0  0  0  0  0  0  0  0  0  0
    5.8563   -8.4249  -11.7961 N   0  0  0  0  0  0  0  0  0  0  0  0
    5.2709   -8.4720  -13.0909 N   0  0  0  0  0  0  0  0  0  0  0  0
    5.4521   -7.2368  -13.7601 N   0  0  0  0  0  0  0  0  0  0  0  0
    4.9184   -7.2985  -15.0874 N   0  0  0  0  0  0  0  0  0  0  0  0
    5.0419   -5.9792  -15.7028 C   0  0  0  0  0  0  0  0  0  0  0  0
    6.4541   -5.6488  -15.7815 N   0  0  0  0  0  0  0  0  0  0  0  0
    6.6372   -4.3853  -16.4439 C   0  0  0  0  0  0  0  0  0  0  0  0
    8.0176   -4.1199  -16.4619 O   0  0  0  0  0  0  0  0  0  0  0  0
    5.0202   -1.3564   -2.2893 C   0  0  0  0  0  0  0  0  0  0  0  0
    4.3178   -0.3777   -1.5810 C   0  0  0  0  0  0  0  0  0  0  0  0
    2.3510    1.8816    0.9497 H   0  0  0  0  0  0  0  0  0  0  0  0
    3.4048    1.9630   -0.4593 H   0  0  0  0  0  0  0  0  0  0  0  0
    3.9063    1.0370    1.0074 H   0  0  0  0  0  0  0  0  0  0  0  0
    1.8604   -2.3214   -0.2746 H   0  0  0  0  0  0  0  0  0  0  0  0
    3.1016   -4.0579   -1.5146 H   0  0  0  0  0  0  0  0  0  0  0  0
    5.2907   -4.7022   -2.5206 H   0  0  0  0  0  0  0  0  0  0  0  0
    6.4145   -3.4815   -3.0866 H   0  0  0  0  0  0  0  0  0  0  0  0
    4.8673   -2.9198   -4.9908 H   0  0  0  0  0  0  0  0  0  0  0  0
    3.7206   -4.1277   -4.4199 H   0  0  0  0  0  0  0  0  0  0  0  0
    5.4450   -5.9200   -4.7387 H   0  0  0  0  0  0  0  0  0  0  0  0
    6.5944   -4.7098   -5.3151 H   0  0  0  0  0  0  0  0  0  0  0  0
    5.0284   -4.1156   -7.1822 H   0  0  0  0  0  0  0  0  0  0  0  0
    3.8822   -5.3257   -6.6038 H   0  0  0  0  0  0  0  0  0  0  0  0
    5.5927   -7.1198   -6.9616 H   0  0  0  0  0  0  0  0  0  0  0  0
    6.7392   -5.9115   -7.5481 H   0  0  0  0  0  0  0  0  0  0  0  0
    5.1568   -5.3076   -9.3952 H   0  0  0  0  0  0  0  0  0  0  0  0
    4.0059   -6.5068   -8.8009 H   0  0  0  0  0  0  0  0  0  0  0  0
    5.7382   -8.3087   -9.1488 H   0  0  0  0  0  0  0  0  0  0  0  0
    6.8423   -7.0862   -9.8154 H   0  0  0  0  0  0  0  0  0  0  0  0
    5.1345   -6.5948  -11.4723 H   0  0  0  0  0  0  0  0  0  0  0  0
    5.8522   -9.3638  -11.3799 H   0  0  0  0  0  0  0  0  0  0  0  0
    4.2751   -8.6862  -13.0035 H   0  0  0  0  0  0  0  0  0  0  0  0
    6.4542   -7.0071  -13.8010 H   0  0  0  0  0  0  0  0  0  0  0  0
    3.9269   -7.5338  -15.0452 H   0  0  0  0  0  0  0  0  0  0  0  0
    4.4851   -5.2329  -15.1218 H   0  0  0  0  0  0  0  0  0  0  0  0
    4.5973   -6.0254  -16.7045 H   0  0  0  0  0  0  0  0  0  0  0  0
    6.8999   -6.3782  -16.3339 H   0  0  0  0  0  0  0  0  0  0  0  0
    6.1439   -3.5725  -15.9002 H   0  0  0  0  0  0  0  0  0  0  0  0
    6.2695   -4.3960  -17.4743 H   0  0  0  0  0  0  0  0  0  0  0  0
    8.3128   -4.3899  -15.5755 H   0  0  0  0  0  0  0  0  0  0  0  0
    5.8922   -1.0666   -2.8719 H   0  0  0  0  0  0  0  0  0  0  0  0
    4.6649    0.6474   -1.6470 H   0  0  0  0  0  0  0  0  0  0  0  0
  1  2  1  0  0  0  0
  1 25  1  0  0  0  0
  1 26  1  0  0  0  0
  1 27  1  0  0  0  0
  2  3  1  0  0  0  0
  3  4  1  0  0  0  0
  3 24  2  0  0  0  0
  4  5  2  0  0  0  0
  4 28  1  0  0  0  0
  5  6  1  0  0  0  0
  5 29  1  0  0  0  0
  6  7  1  0  0  0  0
  6 23  2  0  0  0  0
  7  8  1  0  0  0  0
  7 30  1  0  0  0  0
  7 31  1  0  0  0  0
  8  9  1  0  0  0  0
  8 32  1  0  0  0  0
  8 33  1  0  0  0  0
  9 10  1  0  0  0  0
  9 34  1  0  0  0  0
  9 35  1  0  0  0  0
 10 11  1  0  0  0  0
 10 36  1  0  0  0  0
 10 37  1  0  0  0  0
 11 12  1  0  0  0  0
 11 38  1  0  0  0  0
 11 39  1  0  0  0  0
 12 13  1  0  0  0  0
 12 40  1  0  0  0  0
 12 41  1  0  0  0  0
 13 14  1  0  0  0  0
 13 42  1  0  0  0  0
 13 43  1  0  0  0  0
 14 15  1  0  0  0  0
 14 44  1  0  0  0  0
 15 16  1  0  0  0  0
 15 45  1  0  0  0  0
 16 17  1  0  0  0  0
 16 46  1  0  0  0  0
 17 18  1  0  0  0  0
 17 47  1  0  0  0  0
 18 19  1  0  0  0  0
 18 48  1  0  0  0  0
 19 20  1  0  0  0  0
 19 49  1  0  0  0  0
 19 50  1  0  0  0  0
 20 21  1  0  0  0  0
 20 51  1  0  0  0  0
 21 22  1  0  0  0  0
 21 52  1  0  0  0  0
 21 53  1  0  0  0  0
 22 54  1  0  0  0  0
 23 24  1  0  0  0  0
 23 55  1  0  0  0  0
 24 56  1  0  0  0  0
M  END
$$$$
