
 OpenBabel04232216453D

 49 50  0  0  0  0  0  0  0  0999 V2000
    3.3961   -1.4769    1.2964 C   0  0  0  0  0  0  0  0  0  0  0  0
    4.3157   -1.9182    0.1987 C   0  0  0  0  0  0  0  0  0  0  0  0
    3.8283   -1.4842   -1.1274 C   0  0  0  0  0  0  0  0  0  0  0  0
    4.7174   -0.8048   -1.8656 C   0  0  0  0  0  0  0  0  0  0  0  0
    5.5187    0.2370   -1.0703 C   0  0  0  0  0  0  0  0  0  0  0  0
    5.1986   -1.3857   -3.0915 N   0  0  0  0  0  0  0  0  0  0  0  0
    4.7192   -2.8044   -3.3959 C   0  0  0  0  0  0  0  0  0  0  0  0
    3.3594   -2.8950   -4.0827 C   0  0  0  0  0  0  0  0  0  0  0  0
    3.3672   -2.4909   -5.5494 C   0  0  0  0  0  0  0  0  0  0  0  0
    4.3257   -3.3203   -6.3917 C   0  0  0  0  0  0  0  0  0  0  0  0
    6.5624   -1.1080   -3.3789 C   0  0  0  0  0  0  0  0  0  0  0  0
    7.5296   -2.0241   -3.1614 C   0  0  0  0  0  0  0  0  0  0  0  0
    8.1195   -2.1656   -1.8307 C   0  0  0  0  0  0  0  0  0  0  0  0
    9.5654   -1.7090   -1.7150 C   0  0  0  0  0  0  0  0  0  0  0  0
   10.6088   -2.5926   -2.4042 C   0  0  0  0  0  0  0  0  0  0  0  0
   12.0549   -2.1563   -2.1451 C   0  0  0  0  0  0  0  0  0  0  0  0
   12.4494   -2.1779   -0.6738 C   0  0  0  0  0  0  0  0  0  0  0  0
    7.4527   -2.8227   -0.8511 C   0  0  0  0  0  0  0  0  0  0  0  0
    7.9792   -3.6826    0.1168 N   0  0  0  0  0  0  0  0  0  0  0  0
    6.8753   -4.2489    0.2070 N   0  0  0  0  0  0  0  0  0  0  0  0
    6.2337   -3.2198   -0.4885 N   0  0  0  0  0  0  0  0  0  0  0  0
    5.4189   -2.5732    0.4865 N   0  0  0  0  0  0  0  0  0  0  0  0
    2.3918   -1.8730    1.0958 H   0  0  0  0  0  0  0  0  0  0  0  0
    3.3320   -0.3841    1.2841 H   0  0  0  0  0  0  0  0  0  0  0  0
    3.7330   -1.8160    2.2719 H   0  0  0  0  0  0  0  0  0  0  0  0
    2.8206   -1.6935   -1.4532 H   0  0  0  0  0  0  0  0  0  0  0  0
    4.8469    0.7683   -0.3797 H   0  0  0  0  0  0  0  0  0  0  0  0
    5.9595    1.0270   -1.6797 H   0  0  0  0  0  0  0  0  0  0  0  0
    6.3034   -0.2226   -0.4625 H   0  0  0  0  0  0  0  0  0  0  0  0
    4.6560   -3.3863   -2.4695 H   0  0  0  0  0  0  0  0  0  0  0  0
    5.4463   -3.3605   -3.9920 H   0  0  0  0  0  0  0  0  0  0  0  0
    2.6017   -2.3141   -3.5509 H   0  0  0  0  0  0  0  0  0  0  0  0
    3.0320   -3.9446   -4.0209 H   0  0  0  0  0  0  0  0  0  0  0  0
    3.6127   -1.4276   -5.6426 H   0  0  0  0  0  0  0  0  0  0  0  0
    2.3527   -2.6247   -5.9434 H   0  0  0  0  0  0  0  0  0  0  0  0
    5.3685   -3.1026   -6.1420 H   0  0  0  0  0  0  0  0  0  0  0  0
    4.1888   -3.0941   -7.4523 H   0  0  0  0  0  0  0  0  0  0  0  0
    4.1534   -4.3919   -6.2445 H   0  0  0  0  0  0  0  0  0  0  0  0
    6.8124   -0.1016   -3.0571 H   0  0  0  0  0  0  0  0  0  0  0  0
    7.4033   -3.0167   -3.5995 H   0  0  0  0  0  0  0  0  0  0  0  0
    9.7999   -1.6451   -0.6515 H   0  0  0  0  0  0  0  0  0  0  0  0
    9.6510   -0.6787   -2.1054 H   0  0  0  0  0  0  0  0  0  0  0  0
   10.4393   -2.5768   -3.4962 H   0  0  0  0  0  0  0  0  0  0  0  0
   10.4795   -3.6352   -2.0894 H   0  0  0  0  0  0  0  0  0  0  0  0
   12.2266   -1.1512   -2.5489 H   0  0  0  0  0  0  0  0  0  0  0  0
   12.7248   -2.8309   -2.6901 H   0  0  0  0  0  0  0  0  0  0  0  0
   11.9100   -1.4189   -0.0992 H   0  0  0  0  0  0  0  0  0  0  0  0
   13.5180   -1.9669   -0.5637 H   0  0  0  0  0  0  0  0  0  0  0  0
   12.2497   -3.1581   -0.2295 H   0  0  0  0  0  0  0  0  0  0  0  0
  1  2  1  0  0  0  0
  1 23  1  0  0  0  0
  1 24  1  0  0  0  0
  1 25  1  0  0  0  0
  2  3  1  0  0  0  0
  2 22  2  0  0  0  0
  3  4  2  0  0  0  0
  3 26  1  0  0  0  0
  4  5  1  0  0  0  0
  4  6  1  0  0  0  0
  5 27  1  0  0  0  0
  5 28  1  0  0  0  0
  5 29  1  0  0  0  0
  6  7  1  0  0  0  0
  6 11  1  0  0  0  0
  7  8  1  0  0  0  0
  7 30  1  0  0  0  0
  7 31  1  0  0  0  0
  8  9  1  0  0  0  0
  8 32  1  0  0  0  0
  8 33  1  0  0  0  0
  9 10  1  0  0  0  0
  9 34  1  0  0  0  0
  9 35  1  0  0  0  0
 10 36  1  0  0  0  0
 10 37  1  0  0  0  0
 10 38  1  0  0  0  0
 11 12  2  0  0  0  0
 11 39  1  0  0  0  0
 12 13  1  0  0  0  0
 12 40  1  0  0  0  0
 13 14  1  0  0  0  0
 13 18  2  0  0  0  0
 14 15  1  0  0  0  0
 14 41  1  0  0  0  0
 14 42  1  0  0  0  0
 15 16  1  0  0  0  0
 15 43  1  0  0  0  0
 15 44  1  0  0  0  0
 16 17  1  0  0  0  0
 16 45  1  0  0  0  0
 16 46  1  0  0  0  0
 17 47  1  0  0  0  0
 17 48  1  0  0  0  0
 17 49  1  0  0  0  0
 18 19  1  0  0  0  0
 18 21  1  0  0  0  0
 19 20  2  0  0  0  0
 20 21  1  0  0  0  0
 21 22  1  0  0  0  0
M  END
$$$$
