
 OpenBabel04232216483D

 60 60  0  0  1  0  0  0  0  0999 V2000
    2.3361   -0.1105   -0.9871 C   0  0  0  0  0  0  0  0  0  0  0  0
    3.5481    0.4100   -0.2344 C   0  0  0  0  0  0  0  0  0  0  0  0
    3.3191    1.4036    0.6472 C   0  0  0  0  0  0  0  0  0  0  0  0
    4.4033    2.0018    1.3611 C   0  0  0  0  0  0  0  0  0  0  0  0
    5.1009    2.9878    0.7761 C   0  0  0  0  0  0  0  0  0  0  0  0
    4.5791    4.0720   -0.1569 C   0  0  0  0  0  0  0  0  0  0  0  0
    3.1031    4.4460   -0.0900 C   0  0  0  0  0  0  0  0  0  0  0  0
    6.5981    2.8895    0.8891 C   0  0  0  0  0  0  0  0  0  0  0  0
    7.2085    2.6326   -0.4937 C   0  0  0  0  0  0  0  0  0  0  0  0
    7.1449    1.1981   -1.0998 C   0  0  0  0  0  0  0  0  0  0  0  0
    5.8656    0.3387   -1.5107 C   0  0  0  0  0  0  0  0  0  0  0  0
    4.9233   -0.2980   -0.4051 C   0  0  3  0  0  0  0  0  0  0  0  0
    4.6209   -1.8318   -0.2545 C   0  0  0  0  0  0  0  0  0  0  0  0
    4.5735   -2.8989   -1.0697 C   0  0  0  0  0  0  0  0  0  0  0  0
    4.0863   -4.3095   -0.6837 C   0  0  0  0  0  0  0  0  0  0  0  0
    3.8532   -4.7479    0.7869 C   0  0  0  0  0  0  0  0  0  0  0  0
    2.5494   -4.3446    1.5147 C   0  0  0  0  0  0  0  0  0  0  0  0
    1.2248   -4.9538    1.0388 C   0  0  0  0  0  0  0  0  0  0  0  0
    1.0249   -6.4755    1.1573 C   0  0  0  0  0  0  0  0  0  0  0  0
    0.9901   -7.0448    2.5885 C   0  0  0  0  0  0  0  0  0  0  0  0
    0.6845   -8.5489    2.5739 C   0  0  0  0  0  0  0  0  0  0  0  0
    0.6998   -9.1591    3.9679 C   0  0  0  0  0  0  0  0  0  0  0  0
    1.6417    0.7014   -1.2405 H   0  0  0  0  0  0  0  0  0  0  0  0
    1.7963   -0.8128   -0.3404 H   0  0  0  0  0  0  0  0  0  0  0  0
    2.5899   -0.6166   -1.9217 H   0  0  0  0  0  0  0  0  0  0  0  0
    2.3249    1.8080    0.8093 H   0  0  0  0  0  0  0  0  0  0  0  0
    4.8884    1.3217    2.0630 H   0  0  0  0  0  0  0  0  0  0  0  0
    4.8066    3.8124   -1.1959 H   0  0  0  0  0  0  0  0  0  0  0  0
    5.1410    4.9880    0.0735 H   0  0  0  0  0  0  0  0  0  0  0  0
    2.4832    3.7094   -0.6094 H   0  0  0  0  0  0  0  0  0  0  0  0
    2.9441    5.4032   -0.5992 H   0  0  0  0  0  0  0  0  0  0  0  0
    2.7512    4.5502    0.9404 H   0  0  0  0  0  0  0  0  0  0  0  0
    6.9188    2.0839    1.5626 H   0  0  0  0  0  0  0  0  0  0  0  0
    6.9844    3.8189    1.3292 H   0  0  0  0  0  0  0  0  0  0  0  0
    8.2778    2.8801   -0.3843 H   0  0  0  0  0  0  0  0  0  0  0  0
    6.8602    3.3727   -1.2248 H   0  0  0  0  0  0  0  0  0  0  0  0
    7.6881    1.3332   -2.0511 H   0  0  0  0  0  0  0  0  0  0  0  0
    7.8026    0.5667   -0.4925 H   0  0  0  0  0  0  0  0  0  0  0  0
    5.2872    0.9188   -2.2402 H   0  0  0  0  0  0  0  0  0  0  0  0
    6.3001   -0.4991   -2.0761 H   0  0  0  0  0  0  0  0  0  0  0  0
    5.5080   -0.1322    0.5085 H   0  0  0  0  0  0  0  0  0  0  0  0
    4.3310   -2.0314    0.7696 H   0  0  0  0  0  0  0  0  0  0  0  0
    4.8225   -2.7780   -2.1231 H   0  0  0  0  0  0  0  0  0  0  0  0
    4.8707   -4.9798   -1.0648 H   0  0  0  0  0  0  0  0  0  0  0  0
    3.1887   -4.5472   -1.2710 H   0  0  0  0  0  0  0  0  0  0  0  0
    4.6977   -4.3852    1.3892 H   0  0  0  0  0  0  0  0  0  0  0  0
    3.9220   -5.8452    0.8195 H   0  0  0  0  0  0  0  0  0  0  0  0
    2.4527   -3.2547    1.4786 H   0  0  0  0  0  0  0  0  0  0  0  0
    2.6723   -4.5962    2.5758 H   0  0  0  0  0  0  0  0  0  0  0  0
    1.0647   -4.6677   -0.0128 H   0  0  0  0  0  0  0  0  0  0  0  0
    0.4219   -4.4675    1.6026 H   0  0  0  0  0  0  0  0  0  0  0  0
    1.7861   -6.9954    0.5659 H   0  0  0  0  0  0  0  0  0  0  0  0
    0.0601   -6.7106    0.6886 H   0  0  0  0  0  0  0  0  0  0  0  0
    0.2254   -6.5274    3.1766 H   0  0  0  0  0  0  0  0  0  0  0  0
    1.9564   -6.8717    3.0757 H   0  0  0  0  0  0  0  0  0  0  0  0
    1.4190   -9.0748    1.9530 H   0  0  0  0  0  0  0  0  0  0  0  0
   -0.2999   -8.7273    2.1256 H   0  0  0  0  0  0  0  0  0  0  0  0
    1.6722   -9.0194    4.4463 H   0  0  0  0  0  0  0  0  0  0  0  0
    0.5028  -10.2335    3.9129 H   0  0  0  0  0  0  0  0  0  0  0  0
   -0.0675   -8.7129    4.6084 H   0  0  0  0  0  0  0  0  0  0  0  0
  1  2  1  0  0  0  0
  1 23  1  0  0  0  0
  1 24  1  0  0  0  0
  1 25  1  0  0  0  0
  2  3  2  3  0  0  0
  2 12  1  0  0  0  0
  3  4  1  0  0  0  0
  3 26  1  0  0  0  0
  4  5  2  3  0  0  0
  4 27  1  0  0  0  0
  5  6  1  0  0  0  0
  5  8  1  0  0  0  0
  6  7  1  0  0  0  0
  6 28  1  0  0  0  0
  6 29  1  0  0  0  0
  7 30  1  0  0  0  0
  7 31  1  0  0  0  0
  7 32  1  0  0  0  0
  8  9  1  0  0  0  0
  8 33  1  0  0  0  0
  8 34  1  0  0  0  0
  9 10  1  0  0  0  0
  9 35  1  0  0  0  0
  9 36  1  0  0  0  0
 10 11  1  0  0  0  0
 10 37  1  0  0  0  0
 10 38  1  0  0  0  0
 11 12  1  0  0  0  0
 11 39  1  0  0  0  0
 11 40  1  0  0  0  0
 12 13  1  0  0  0  0
 12 41  1  0  0  0  0
 13 14  2  3  0  0  0
 13 42  1  0  0  0  0
 14 15  1  0  0  0  0
 14 43  1  0  0  0  0
 15 16  1  0  0  0  0
 15 44  1  0  0  0  0
 15 45  1  0  0  0  0
 16 17  1  0  0  0  0
 16 46  1  0  0  0  0
 16 47  1  0  0  0  0
 17 18  1  0  0  0  0
 17 48  1  0  0  0  0
 17 49  1  0  0  0  0
 18 19  1  0  0  0  0
 18 50  1  0  0  0  0
 18 51  1  0  0  0  0
 19 20  1  0  0  0  0
 19 52  1  0  0  0  0
 19 53  1  0  0  0  0
 20 21  1  0  0  0  0
 20 54  1  0  0  0  0
 20 55  1  0  0  0  0
 21 22  1  0  0  0  0
 21 56  1  0  0  0  0
 21 57  1  0  0  0  0
 22 58  1  0  0  0  0
 22 59  1  0  0  0  0
 22 60  1  0  0  0  0
M  END
$$$$
