
 OpenBabel04232217003D

206205  0  0  0  0  0  0  0  0999 V2000
   12.8099  -20.7117   25.1178 O   0  0  0  0  0  0  0  0  0  0  0  0
   13.5737  -19.9648   25.6802 C   0  0  0  0  0  0  0  0  0  0  0  0
   13.9221  -18.5815   25.1804 C   0  0  0  0  0  0  0  0  0  0  0  0
   13.1895  -18.2593   23.8825 C   0  0  0  0  0  0  0  0  0  0  0  0
   13.5607  -16.8657   23.4116 C   0  0  0  0  0  0  0  0  0  0  0  0
   14.9671  -16.7954   23.1845 O   0  0  0  0  0  0  0  0  0  0  0  0
   15.3289  -15.4932   22.7514 C   0  0  0  0  0  0  0  0  0  0  0  0
   16.8261  -15.4452   22.5232 C   0  0  0  0  0  0  0  0  0  0  0  0
   17.2265  -14.0561   22.0542 C   0  0  0  0  0  0  0  0  0  0  0  0
   18.7238  -13.9845   21.8166 C   0  0  0  0  0  0  0  0  0  0  0  0
   19.1103  -12.5913   21.3504 C   0  0  0  0  0  0  0  0  0  0  0  0
   20.6079  -12.5208   21.1152 C   0  0  0  0  0  0  0  0  0  0  0  0
   20.9942  -11.1299   20.6476 C   0  0  0  0  0  0  0  0  0  0  0  0
   22.4913  -11.0627   20.4113 C   0  0  0  0  0  0  0  0  0  0  0  0
   22.8780   -9.6725   19.9439 C   0  0  0  0  0  0  0  0  0  0  0  0
   24.3746   -9.6065   19.7059 C   0  0  0  0  0  0  0  0  0  0  0  0
   24.7607   -8.2154   19.2404 C   0  0  0  0  0  0  0  0  0  0  0  0
   26.2570   -8.1494   19.0003 C   0  0  0  0  0  0  0  0  0  0  0  0
   26.6436   -6.7589   18.5328 C   0  0  0  0  0  0  0  0  0  0  0  0
   28.1405   -6.6929   18.2947 C   0  0  0  0  0  0  0  0  0  0  0  0
   28.5294   -5.3034   17.8251 C   0  0  0  0  0  0  0  0  0  0  0  0
   30.0282   -5.2381   17.5891 C   0  0  0  0  0  0  0  0  0  0  0  0
   30.4191   -3.8490   17.1214 C   0  0  0  0  0  0  0  0  0  0  0  0
   31.9172   -3.7702   16.8837 C   0  0  0  0  0  0  0  0  0  0  0  0
   32.2797   -2.3764   16.4191 C   0  0  0  0  0  0  0  0  0  0  0  0
   33.6818   -2.3085   16.2073 O   0  0  0  0  0  0  0  0  0  0  0  0
   34.0387   -1.0044   15.7647 C   0  0  0  0  0  0  0  0  0  0  0  0
   35.5349   -0.9532   15.5378 C   0  0  0  0  0  0  0  0  0  0  0  0
   35.9351   -1.9724   14.4787 C   0  0  0  0  0  0  0  0  0  0  0  0
   37.4248   -1.9189   14.2464 C   0  0  0  0  0  0  0  0  0  0  0  0
   37.7706   -2.8708   13.2415 O   0  0  0  0  0  0  0  0  0  0  0  0
   39.1748   -2.8504   13.0265 C   0  0  0  0  0  0  0  0  0  0  0  0
   39.9087   -3.1701   14.2010 O   0  0  0  0  0  0  0  0  0  0  0  0
   39.5191   -4.4547   14.6787 C   0  0  0  0  0  0  0  0  0  0  0  0
   40.2812   -4.7441   15.9479 C   0  0  0  0  0  0  0  0  0  0  0  0
   39.9460   -3.7757   16.9443 O   0  0  0  0  0  0  0  0  0  0  0  0
   40.6596   -4.0252   18.1344 C   0  0  0  0  0  0  0  0  0  0  0  0
   42.0657   -3.9643   17.9211 O   0  0  0  0  0  0  0  0  0  0  0  0
   42.7718   -4.2341   19.1093 C   0  0  0  0  0  0  0  0  0  0  0  0
   44.2435   -4.1728   18.7940 C   0  0  0  0  0  0  0  0  0  0  0  0
   44.9516   -4.4548   19.9876 O   0  0  0  0  0  0  0  0  0  0  0  0
   46.3508   -4.3766   19.7344 C   0  0  0  0  0  0  0  0  0  0  0  0
   46.7374   -3.0855   19.2729 O   0  0  0  0  0  0  0  0  0  0  0  0
   46.4091   -2.0814   20.2381 C   0  0  0  0  0  0  0  0  0  0  0  0
   47.1359   -2.3671   21.5226 C   0  0  0  0  0  0  0  0  0  0  0  0
   48.5244   -2.3697   21.2397 O   0  0  0  0  0  0  0  0  0  0  0  0
   49.2762   -2.6288   22.4152 C   0  0  0  0  0  0  0  0  0  0  0  0
   50.6726   -2.6173   22.1475 O   0  0  0  0  0  0  0  0  0  0  0  0
   51.0644   -1.3381   21.6498 C   0  0  0  0  0  0  0  0  0  0  0  0
   52.5496   -1.3600   21.3711 C   0  0  0  0  0  0  0  0  0  0  0  0
   52.9517   -0.0919   20.8656 O   0  0  0  0  0  0  0  0  0  0  0  0
   54.3498   -0.0892   20.6054 C   0  0  0  0  0  0  0  0  0  0  0  0
   54.7451    1.2739   20.0752 C   0  0  0  0  0  0  0  0  0  0  0  0
   54.4222    2.3566   21.1051 C   0  0  0  0  0  0  0  0  0  0  0  0
   54.8232    3.7183   20.5787 C   0  0  0  0  0  0  0  0  0  0  0  0
   54.1067    3.9839   19.3803 O   0  0  0  0  0  0  0  0  0  0  0  0
   54.4703    5.2577   18.8653 C   0  0  0  0  0  0  0  0  0  0  0  0
   53.6946    5.5175   17.5916 C   0  0  0  0  0  0  0  0  0  0  0  0
   52.1923    5.4978   17.8725 C   0  0  0  0  0  0  0  0  0  0  0  0
   51.4177    5.7654   16.5997 C   0  0  0  0  0  0  0  0  0  0  0  0
   51.7291    4.7599   15.6447 O   0  0  0  0  0  0  0  0  0  0  0  0
   51.0135    4.9916   14.4389 C   0  0  0  0  0  0  0  0  0  0  0  0
   51.3607    3.9084   13.4399 C   0  0  0  0  0  0  0  0  0  0  0  0
   50.9821    2.5352   13.9948 C   0  0  0  0  0  0  0  0  0  0  0  0
   51.3208    1.4516   12.9931 C   0  0  0  0  0  0  0  0  0  0  0  0
   52.7173    1.4835   12.7317 O   0  0  0  0  0  0  0  0  0  0  0  0
   53.0599    0.4731   11.7906 C   0  0  0  0  0  0  0  0  0  0  0  0
   54.5501    0.5233   11.5279 C   0  0  0  0  0  0  0  0  0  0  0  0
   55.3240    0.2872   12.8248 C   0  0  0  0  0  0  0  0  0  0  0  0
   56.8142    0.3294   12.5614 C   0  0  0  0  0  0  0  0  0  0  0  0
   57.1584    1.6050   12.0355 O   0  0  0  0  0  0  0  0  0  0  0  0
   58.5553    1.6669   11.7779 C   0  0  0  0  0  0  0  0  0  0  0  0
   58.8968    3.0327   11.2211 C   0  0  0  0  0  0  0  0  0  0  0  0
   58.5193    4.1230   12.2238 C   0  0  0  0  0  0  0  0  0  0  0  0
   58.8677    5.4893   11.6704 C   0  0  0  0  0  0  0  0  0  0  0  0
   58.1455    5.7021   10.4619 O   0  0  0  0  0  0  0  0  0  0  0  0
   58.4661    6.9782    9.9226 C   0  0  0  0  0  0  0  0  0  0  0  0
   57.6958    7.1840    8.6320 C   0  0  0  0  0  0  0  0  0  0  0  0
   58.0210    8.5503    8.0408 C   0  0  0  0  0  0  0  0  0  0  0  0
   57.2620    8.7799    6.7487 C   0  0  0  0  0  0  0  0  0  0  0  0
   14.0748  -20.2639   26.6237 H   0  0  0  0  0  0  0  0  0  0  0  0
   15.0061  -18.5403   25.0310 H   0  0  0  0  0  0  0  0  0  0  0  0
   13.6498  -17.8603   25.9583 H   0  0  0  0  0  0  0  0  0  0  0  0
   12.1041  -18.3250   24.0264 H   0  0  0  0  0  0  0  0  0  0  0  0
   13.4469  -18.9940   23.1103 H   0  0  0  0  0  0  0  0  0  0  0  0
   13.2807  -16.1268   24.1711 H   0  0  0  0  0  0  0  0  0  0  0  0
   13.0350  -16.6331   22.4793 H   0  0  0  0  0  0  0  0  0  0  0  0
   15.0433  -14.7611   23.5147 H   0  0  0  0  0  0  0  0  0  0  0  0
   14.8009  -15.2626   21.8202 H   0  0  0  0  0  0  0  0  0  0  0  0
   17.1162  -16.2008   21.7825 H   0  0  0  0  0  0  0  0  0  0  0  0
   17.3546  -15.7070   23.4483 H   0  0  0  0  0  0  0  0  0  0  0  0
   16.9348  -13.3105   22.8046 H   0  0  0  0  0  0  0  0  0  0  0  0
   16.6926  -13.8065   21.1286 H   0  0  0  0  0  0  0  0  0  0  0  0
   19.0182  -14.7241   21.0621 H   0  0  0  0  0  0  0  0  0  0  0  0
   19.2610  -14.2298   22.7408 H   0  0  0  0  0  0  0  0  0  0  0  0
   18.8160  -11.8490   22.1028 H   0  0  0  0  0  0  0  0  0  0  0  0
   18.5756  -12.3437   20.4249 H   0  0  0  0  0  0  0  0  0  0  0  0
   20.9035  -13.2627   20.3631 H   0  0  0  0  0  0  0  0  0  0  0  0
   21.1436  -12.7655   22.0406 H   0  0  0  0  0  0  0  0  0  0  0  0
   20.7010  -10.3872   21.3999 H   0  0  0  0  0  0  0  0  0  0  0  0
   20.4586  -10.8837   19.7225 H   0  0  0  0  0  0  0  0  0  0  0  0
   22.7849  -11.8051   19.6588 H   0  0  0  0  0  0  0  0  0  0  0  0
   23.0274  -11.3086   21.3363 H   0  0  0  0  0  0  0  0  0  0  0  0
   22.5860   -8.9300   20.6969 H   0  0  0  0  0  0  0  0  0  0  0  0
   22.3412   -9.4258   19.0195 H   0  0  0  0  0  0  0  0  0  0  0  0
   24.6665  -10.3478   18.9518 H   0  0  0  0  0  0  0  0  0  0  0  0
   24.9117   -9.8544   20.6297 H   0  0  0  0  0  0  0  0  0  0  0  0
   24.4699   -7.4744   19.9952 H   0  0  0  0  0  0  0  0  0  0  0  0
   24.2224   -7.9671   18.3174 H   0  0  0  0  0  0  0  0  0  0  0  0
   26.5477   -8.8916   18.2467 H   0  0  0  0  0  0  0  0  0  0  0  0
   26.7949   -8.3966   19.9239 H   0  0  0  0  0  0  0  0  0  0  0  0
   26.3513   -6.0167   19.2859 H   0  0  0  0  0  0  0  0  0  0  0  0
   26.1063   -6.5126   17.6087 H   0  0  0  0  0  0  0  0  0  0  0  0
   28.4321   -7.4367   17.5430 H   0  0  0  0  0  0  0  0  0  0  0  0
   28.6767   -6.9385   19.2197 H   0  0  0  0  0  0  0  0  0  0  0  0
   28.2353   -4.5599   18.5763 H   0  0  0  0  0  0  0  0  0  0  0  0
   27.9930   -5.0586   16.8999 H   0  0  0  0  0  0  0  0  0  0  0  0
   30.3196   -5.9810   16.8368 H   0  0  0  0  0  0  0  0  0  0  0  0
   30.5622   -5.4843   18.5149 H   0  0  0  0  0  0  0  0  0  0  0  0
   30.1212   -3.1069   17.8729 H   0  0  0  0  0  0  0  0  0  0  0  0
   29.8812   -3.6037   16.1969 H   0  0  0  0  0  0  0  0  0  0  0  0
   32.2298   -4.5081   16.1343 H   0  0  0  0  0  0  0  0  0  0  0  0
   32.4682   -4.0143   17.8004 H   0  0  0  0  0  0  0  0  0  0  0  0
   31.9960   -1.6410   17.1798 H   0  0  0  0  0  0  0  0  0  0  0  0
   31.7569   -2.1440   15.4843 H   0  0  0  0  0  0  0  0  0  0  0  0
   33.7543   -0.2724   16.5275 H   0  0  0  0  0  0  0  0  0  0  0  0
   33.5115   -0.7764   14.8315 H   0  0  0  0  0  0  0  0  0  0  0  0
   36.0607   -1.1630   16.4780 H   0  0  0  0  0  0  0  0  0  0  0  0
   35.8275    0.0567   15.2264 H   0  0  0  0  0  0  0  0  0  0  0  0
   35.4100   -1.7775   13.5359 H   0  0  0  0  0  0  0  0  0  0  0  0
   35.6469   -2.9873   14.7807 H   0  0  0  0  0  0  0  0  0  0  0  0
   37.9498   -2.1453   15.1825 H   0  0  0  0  0  0  0  0  0  0  0  0
   37.7233   -0.9206   13.9099 H   0  0  0  0  0  0  0  0  0  0  0  0
   39.4702   -1.8554   12.6806 H   0  0  0  0  0  0  0  0  0  0  0  0
   39.4309   -3.5809   12.2551 H   0  0  0  0  0  0  0  0  0  0  0  0
   39.7659   -5.2028   13.9183 H   0  0  0  0  0  0  0  0  0  0  0  0
   38.4420   -4.4988   14.8801 H   0  0  0  0  0  0  0  0  0  0  0  0
   41.3575   -4.7090   15.7456 H   0  0  0  0  0  0  0  0  0  0  0  0
   40.0278   -5.7440   16.3151 H   0  0  0  0  0  0  0  0  0  0  0  0
   40.3809   -5.0152   18.5095 H   0  0  0  0  0  0  0  0  0  0  0  0
   40.3806   -3.2689   18.8751 H   0  0  0  0  0  0  0  0  0  0  0  0
   42.5109   -5.2241   19.4939 H   0  0  0  0  0  0  0  0  0  0  0  0
   42.5126   -3.4921   19.8700 H   0  0  0  0  0  0  0  0  0  0  0  0
   44.4965   -3.1781   18.4010 H   0  0  0  0  0  0  0  0  0  0  0  0
   44.5062   -4.9091   18.0255 H   0  0  0  0  0  0  0  0  0  0  0  0
   46.6313   -5.1339   18.9976 H   0  0  0  0  0  0  0  0  0  0  0  0
   46.8918   -4.6344   20.6483 H   0  0  0  0  0  0  0  0  0  0  0  0
   45.3273   -2.0722   20.4084 H   0  0  0  0  0  0  0  0  0  0  0  0
   46.6910   -1.1039   19.8332 H   0  0  0  0  0  0  0  0  0  0  0  0
   46.8537   -3.3278   21.9440 H   0  0  0  0  0  0  0  0  0  0  0  0
   46.8977   -1.6079   22.2751 H   0  0  0  0  0  0  0  0  0  0  0  0
   49.0080   -3.6173   22.7989 H   0  0  0  0  0  0  0  0  0  0  0  0
   49.0502   -1.8695   23.1725 H   0  0  0  0  0  0  0  0  0  0  0  0
   50.8278   -0.5578   22.3835 H   0  0  0  0  0  0  0  0  0  0  0  0
   50.5197   -1.1042   20.7268 H   0  0  0  0  0  0  0  0  0  0  0  0
   52.7798   -2.1402   20.6375 H   0  0  0  0  0  0  0  0  0  0  0  0
   53.0963   -1.5900   22.2923 H   0  0  0  0  0  0  0  0  0  0  0  0
   54.5819   -0.8580   19.8617 H   0  0  0  0  0  0  0  0  0  0  0  0
   54.8966   -0.3028   21.5306 H   0  0  0  0  0  0  0  0  0  0  0  0
   54.2105    1.4731   19.1375 H   0  0  0  0  0  0  0  0  0  0  0  0
   55.8160    1.2836   19.8379 H   0  0  0  0  0  0  0  0  0  0  0  0
   54.9501    2.1553   22.0452 H   0  0  0  0  0  0  0  0  0  0  0  0
   53.3490    2.3518   21.3355 H   0  0  0  0  0  0  0  0  0  0  0  0
   55.8968    3.7361   20.3676 H   0  0  0  0  0  0  0  0  0  0  0  0
   54.5862    4.4878   21.3198 H   0  0  0  0  0  0  0  0  0  0  0  0
   55.5442    5.2702   18.6551 H   0  0  0  0  0  0  0  0  0  0  0  0
   54.2370    6.0262   19.6087 H   0  0  0  0  0  0  0  0  0  0  0  0
   53.9497    4.7566   16.8428 H   0  0  0  0  0  0  0  0  0  0  0  0
   53.9895    6.4872   17.1722 H   0  0  0  0  0  0  0  0  0  0  0  0
   51.9368    6.2536   18.6252 H   0  0  0  0  0  0  0  0  0  0  0  0
   51.8971    4.5249   18.2863 H   0  0  0  0  0  0  0  0  0  0  0  0
   51.6915    6.7444   16.1944 H   0  0  0  0  0  0  0  0  0  0  0  0
   50.3435    5.7468   16.8080 H   0  0  0  0  0  0  0  0  0  0  0  0
   51.2900    5.9709   14.0364 H   0  0  0  0  0  0  0  0  0  0  0  0
   49.9397    4.9756   14.6495 H   0  0  0  0  0  0  0  0  0  0  0  0
   52.4347    3.9435   13.2160 H   0  0  0  0  0  0  0  0  0  0  0  0
   50.8333    4.0950   12.4964 H   0  0  0  0  0  0  0  0  0  0  0  0
   49.9103    2.5015   14.2250 H   0  0  0  0  0  0  0  0  0  0  0  0
   51.5153    2.3476   14.9358 H   0  0  0  0  0  0  0  0  0  0  0  0
   50.7754    1.6214   12.0596 H   0  0  0  0  0  0  0  0  0  0  0  0
   51.0505    0.4723   13.3997 H   0  0  0  0  0  0  0  0  0  0  0  0
   52.5125    0.6459   10.8589 H   0  0  0  0  0  0  0  0  0  0  0  0
   52.7852   -0.5052   12.1972 H   0  0  0  0  0  0  0  0  0  0  0  0
   54.8168    1.4980   11.0997 H   0  0  0  0  0  0  0  0  0  0  0  0
   54.8185   -0.2353   10.7824 H   0  0  0  0  0  0  0  0  0  0  0  0
   55.0535   -0.6840   13.2567 H   0  0  0  0  0  0  0  0  0  0  0  0
   55.0592    1.0503   13.5677 H   0  0  0  0  0  0  0  0  0  0  0  0
   57.0879   -0.4441   11.8372 H   0  0  0  0  0  0  0  0  0  0  0  0
   57.3613    0.1633   13.4944 H   0  0  0  0  0  0  0  0  0  0  0  0
   58.8246    0.8919   11.0539 H   0  0  0  0  0  0  0  0  0  0  0  0
   59.1001    1.4970   12.7116 H   0  0  0  0  0  0  0  0  0  0  0  0
   58.3643    3.1886   10.2741 H   0  0  0  0  0  0  0  0  0  0  0  0
   59.9688    3.0799   10.9943 H   0  0  0  0  0  0  0  0  0  0  0  0
   59.0451    3.9631   13.1734 H   0  0  0  0  0  0  0  0  0  0  0  0
   57.4451    4.0786   12.4445 H   0  0  0  0  0  0  0  0  0  0  0  0
   59.9438    5.5468   11.4714 H   0  0  0  0  0  0  0  0  0  0  0  0
   58.5937    6.2622   12.3958 H   0  0  0  0  0  0  0  0  0  0  0  0
   59.5438    7.0314    9.7303 H   0  0  0  0  0  0  0  0  0  0  0  0
   58.1932    7.7495   10.6505 H   0  0  0  0  0  0  0  0  0  0  0  0
   56.6197    7.0925    8.8254 H   0  0  0  0  0  0  0  0  0  0  0  0
   57.9449    6.3860    7.9214 H   0  0  0  0  0  0  0  0  0  0  0  0
   59.0982    8.6267    7.8500 H   0  0  0  0  0  0  0  0  0  0  0  0
   57.7645    9.3378    8.7597 H   0  0  0  0  0  0  0  0  0  0  0  0
   57.5242    8.0208    6.0053 H   0  0  0  0  0  0  0  0  0  0  0  0
   57.5051    9.7633    6.3364 H   0  0  0  0  0  0  0  0  0  0  0  0
   56.1821    8.7363    6.9207 H   0  0  0  0  0  0  0  0  0  0  0  0
  1  2  2  0  0  0  0
  2  3  1  0  0  0  0
  2 81  1  0  0  0  0
  3  4  1  0  0  0  0
  3 82  1  0  0  0  0
  3 83  1  0  0  0  0
  4  5  1  0  0  0  0
  4 84  1  0  0  0  0
  4 85  1  0  0  0  0
  5  6  1  0  0  0  0
  5 86  1  0  0  0  0
  5 87  1  0  0  0  0
  6  7  1  0  0  0  0
  7  8  1  0  0  0  0
  7 88  1  0  0  0  0
  7 89  1  0  0  0  0
  8  9  1  0  0  0  0
  8 90  1  0  0  0  0
  8 91  1  0  0  0  0
  9 10  1  0  0  0  0
  9 92  1  0  0  0  0
  9 93  1  0  0  0  0
 10 11  1  0  0  0  0
 10 94  1  0  0  0  0
 10 95  1  0  0  0  0
 11 12  1  0  0  0  0
 11 96  1  0  0  0  0
 11 97  1  0  0  0  0
 12 13  1  0  0  0  0
 12 98  1  0  0  0  0
 12 99  1  0  0  0  0
 13 14  1  0  0  0  0
 13100  1  0  0  0  0
 13101  1  0  0  0  0
 14 15  1  0  0  0  0
 14102  1  0  0  0  0
 14103  1  0  0  0  0
 15 16  1  0  0  0  0
 15104  1  0  0  0  0
 15105  1  0  0  0  0
 16 17  1  0  0  0  0
 16106  1  0  0  0  0
 16107  1  0  0  0  0
 17 18  1  0  0  0  0
 17108  1  0  0  0  0
 17109  1  0  0  0  0
 18 19  1  0  0  0  0
 18110  1  0  0  0  0
 18111  1  0  0  0  0
 19 20  1  0  0  0  0
 19112  1  0  0  0  0
 19113  1  0  0  0  0
 20 21  1  0  0  0  0
 20114  1  0  0  0  0
 20115  1  0  0  0  0
 21 22  1  0  0  0  0
 21116  1  0  0  0  0
 21117  1  0  0  0  0
 22 23  1  0  0  0  0
 22118  1  0  0  0  0
 22119  1  0  0  0  0
 23 24  1  0  0  0  0
 23120  1  0  0  0  0
 23121  1  0  0  0  0
 24 25  1  0  0  0  0
 24122  1  0  0  0  0
 24123  1  0  0  0  0
 25 26  1  0  0  0  0
 25124  1  0  0  0  0
 25125  1  0  0  0  0
 26 27  1  0  0  0  0
 27 28  1  0  0  0  0
 27126  1  0  0  0  0
 27127  1  0  0  0  0
 28 29  1  0  0  0  0
 28128  1  0  0  0  0
 28129  1  0  0  0  0
 29 30  1  0  0  0  0
 29130  1  0  0  0  0
 29131  1  0  0  0  0
 30 31  1  0  0  0  0
 30132  1  0  0  0  0
 30133  1  0  0  0  0
 31 32  1  0  0  0  0
 32 33  1  0  0  0  0
 32134  1  0  0  0  0
 32135  1  0  0  0  0
 33 34  1  0  0  0  0
 34 35  1  0  0  0  0
 34136  1  0  0  0  0
 34137  1  0  0  0  0
 35 36  1  0  0  0  0
 35138  1  0  0  0  0
 35139  1  0  0  0  0
 36 37  1  0  0  0  0
 37 38  1  0  0  0  0
 37140  1  0  0  0  0
 37141  1  0  0  0  0
 38 39  1  0  0  0  0
 39 40  1  0  0  0  0
 39142  1  0  0  0  0
 39143  1  0  0  0  0
 40 41  1  0  0  0  0
 40144  1  0  0  0  0
 40145  1  0  0  0  0
 41 42  1  0  0  0  0
 42 43  1  0  0  0  0
 42146  1  0  0  0  0
 42147  1  0  0  0  0
 43 44  1  0  0  0  0
 44 45  1  0  0  0  0
 44148  1  0  0  0  0
 44149  1  0  0  0  0
 45 46  1  0  0  0  0
 45150  1  0  0  0  0
 45151  1  0  0  0  0
 46 47  1  0  0  0  0
 47 48  1  0  0  0  0
 47152  1  0  0  0  0
 47153  1  0  0  0  0
 48 49  1  0  0  0  0
 49 50  1  0  0  0  0
 49154  1  0  0  0  0
 49155  1  0  0  0  0
 50 51  1  0  0  0  0
 50156  1  0  0  0  0
 50157  1  0  0  0  0
 51 52  1  0  0  0  0
 52 53  1  0  0  0  0
 52158  1  0  0  0  0
 52159  1  0  0  0  0
 53 54  1  0  0  0  0
 53160  1  0  0  0  0
 53161  1  0  0  0  0
 54 55  1  0  0  0  0
 54162  1  0  0  0  0
 54163  1  0  0  0  0
 55 56  1  0  0  0  0
 55164  1  0  0  0  0
 55165  1  0  0  0  0
 56 57  1  0  0  0  0
 57 58  1  0  0  0  0
 57166  1  0  0  0  0
 57167  1  0  0  0  0
 58 59  1  0  0  0  0
 58168  1  0  0  0  0
 58169  1  0  0  0  0
 59 60  1  0  0  0  0
 59170  1  0  0  0  0
 59171  1  0  0  0  0
 60 61  1  0  0  0  0
 60172  1  0  0  0  0
 60173  1  0  0  0  0
 61 62  1  0  0  0  0
 62 63  1  0  0  0  0
 62174  1  0  0  0  0
 62175  1  0  0  0  0
 63 64  1  0  0  0  0
 63176  1  0  0  0  0
 63177  1  0  0  0  0
 64 65  1  0  0  0  0
 64178  1  0  0  0  0
 64179  1  0  0  0  0
 65 66  1  0  0  0  0
 65180  1  0  0  0  0
 65181  1  0  0  0  0
 66 67  1  0  0  0  0
 67 68  1  0  0  0  0
 67182  1  0  0  0  0
 67183  1  0  0  0  0
 68 69  1  0  0  0  0
 68184  1  0  0  0  0
 68185  1  0  0  0  0
 69 70  1  0  0  0  0
 69186  1  0  0  0  0
 69187  1  0  0  0  0
 70 71  1  0  0  0  0
 70188  1  0  0  0  0
 70189  1  0  0  0  0
 71 72  1  0  0  0  0
 72 73  1  0  0  0  0
 72190  1  0  0  0  0
 72191  1  0  0  0  0
 73 74  1  0  0  0  0
 73192  1  0  0  0  0
 73193  1  0  0  0  0
 74 75  1  0  0  0  0
 74194  1  0  0  0  0
 74195  1  0  0  0  0
 75 76  1  0  0  0  0
 75196  1  0  0  0  0
 75197  1  0  0  0  0
 76 77  1  0  0  0  0
 77 78  1  0  0  0  0
 77198  1  0  0  0  0
 77199  1  0  0  0  0
 78 79  1  0  0  0  0
 78200  1  0  0  0  0
 78201  1  0  0  0  0
 79 80  1  0  0  0  0
 79202  1  0  0  0  0
 79203  1  0  0  0  0
 80204  1  0  0  0  0
 80205  1  0  0  0  0
 80206  1  0  0  0  0
M  END
$$$$
