
 OpenBabel04232216393D

 43 44  0  0  1  0  0  0  0  0999 V2000
    1.2308    0.4784   -0.6921 C   0  0  0  0  0  0  0  0  0  0  0  0
    2.3704    0.5142    0.0140 C   0  0  0  0  0  0  0  0  0  0  0  0
    3.0111   -0.7445    0.5120 C   0  0  0  0  0  0  0  0  0  0  0  0
    4.4872   -0.5766    0.8576 C   0  0  3  0  0  0  0  0  0  0  0  0
    5.1591    0.3674    1.9229 C   0  0  3  0  0  0  0  0  0  0  0  0
    4.5838    1.1921    3.0777 C   0  0  0  0  0  0  0  0  0  0  0  0
    3.1928    0.8290    3.5594 C   0  0  0  0  0  0  0  0  0  0  0  0
    3.0682   -0.1633    4.7108 C   0  0  0  0  0  0  0  0  0  0  0  0
    3.7078   -1.5508    4.6163 C   0  0  0  0  0  0  0  0  0  0  0  0
    3.2779   -2.4157    3.4422 C   0  0  0  0  0  0  0  0  0  0  0  0
    4.3700   -2.8385    2.4496 C   0  0  0  0  0  0  0  0  0  0  0  0
    4.5712   -4.0644    2.3662 O   0  0  0  0  0  0  0  0  0  0  0  0
    5.2017   -1.8009    1.5531 C   0  0  3  0  0  0  0  0  0  0  0  0
    6.2023   -2.5292    0.5990 C   0  0  0  0  0  0  0  0  0  0  0  0
    5.5433   -3.3398   -0.5133 C   0  0  0  0  0  0  0  0  0  0  0  0
    6.6085   -4.0068   -1.3749 C   0  0  0  0  0  0  0  0  0  0  0  0
    6.0694   -0.7897    2.3559 C   0  0  0  0  0  0  0  0  0  0  0  0
    0.7190    1.3884   -0.9886 H   0  0  0  0  0  0  0  0  0  0  0  0
    0.7612   -0.4651   -0.9594 H   0  0  0  0  0  0  0  0  0  0  0  0
    2.7832    1.4765    0.3058 H   0  0  0  0  0  0  0  0  0  0  0  0
    2.9066   -1.5388   -0.2363 H   0  0  0  0  0  0  0  0  0  0  0  0
    2.4313   -1.0543    1.3700 H   0  0  0  0  0  0  0  0  0  0  0  0
    4.9659   -0.3608   -0.1167 H   0  0  0  0  0  0  0  0  0  0  0  0
    5.7829    1.1026    1.3762 H   0  0  0  0  0  0  0  0  0  0  0  0
    4.5311    2.2317    2.7245 H   0  0  0  0  0  0  0  0  0  0  0  0
    5.2908    1.2214    3.9169 H   0  0  0  0  0  0  0  0  0  0  0  0
    2.5392    0.5472    2.7406 H   0  0  0  0  0  0  0  0  0  0  0  0
    2.7564    1.7647    3.9421 H   0  0  0  0  0  0  0  0  0  0  0  0
    1.9921   -0.2999    4.8950 H   0  0  0  0  0  0  0  0  0  0  0  0
    3.4600    0.3159    5.6188 H   0  0  0  0  0  0  0  0  0  0  0  0
    3.3858   -2.0754    5.5272 H   0  0  0  0  0  0  0  0  0  0  0  0
    4.7886   -1.4877    4.7169 H   0  0  0  0  0  0  0  0  0  0  0  0
    2.3900   -2.0350    2.9463 H   0  0  0  0  0  0  0  0  0  0  0  0
    2.9228   -3.3641    3.8752 H   0  0  0  0  0  0  0  0  0  0  0  0
    6.8537   -3.1808    1.1946 H   0  0  0  0  0  0  0  0  0  0  0  0
    6.8632   -1.7911    0.1214 H   0  0  0  0  0  0  0  0  0  0  0  0
    4.9250   -2.6924   -1.1444 H   0  0  0  0  0  0  0  0  0  0  0  0
    4.8832   -4.1078   -0.1035 H   0  0  0  0  0  0  0  0  0  0  0  0
    7.2432   -3.2669   -1.8623 H   0  0  0  0  0  0  0  0  0  0  0  0
    6.1361   -4.6205   -2.1574 H   0  0  0  0  0  0  0  0  0  0  0  0
    7.2470   -4.6646   -0.7729 H   0  0  0  0  0  0  0  0  0  0  0  0
    6.1622   -0.9755    3.4243 H   0  0  0  0  0  0  0  0  0  0  0  0
    7.1032   -0.6621    2.0058 H   0  0  0  0  0  0  0  0  0  0  0  0
  1  2  2  0  0  0  0
  1 18  1  0  0  0  0
  1 19  1  0  0  0  0
  2  3  1  0  0  0  0
  2 20  1  0  0  0  0
  3  4  1  0  0  0  0
  3 21  1  0  0  0  0
  3 22  1  0  0  0  0
  4  5  1  0  0  0  0
  4 13  1  0  0  0  0
  4 23  1  0  0  0  0
  5  6  1  0  0  0  0
  5 17  1  0  0  0  0
  5 24  1  0  0  0  0
  6  7  1  0  0  0  0
  6 25  1  0  0  0  0
  6 26  1  0  0  0  0
  7  8  1  0  0  0  0
  7 27  1  0  0  0  0
  7 28  1  0  0  0  0
  8  9  1  0  0  0  0
  8 29  1  0  0  0  0
  8 30  1  0  0  0  0
  9 10  1  0  0  0  0
  9 31  1  0  0  0  0
  9 32  1  0  0  0  0
 10 11  1  0  0  0  0
 10 33  1  0  0  0  0
 10 34  1  0  0  0  0
 11 12  2  0  0  0  0
 11 13  1  0  0  0  0
 13 14  1  0  0  0  0
 13 17  1  0  0  0  0
 14 15  1  0  0  0  0
 14 35  1  0  0  0  0
 14 36  1  0  0  0  0
 15 16  1  0  0  0  0
 15 37  1  0  0  0  0
 15 38  1  0  0  0  0
 16 39  1  0  0  0  0
 16 40  1  0  0  0  0
 16 41  1  0  0  0  0
 17 42  1  0  0  0  0
 17 43  1  0  0  0  0
M  END
$$$$
