
 OpenBabel04232216393D

 84 84  0  0  0  0  0  0  0  0999 V2000
   16.0060   -2.5164   -8.3211 C   0  0  0  0  0  0  0  0  0  0  0  0
   17.7694   -2.6145   -9.5889 C   0  0  0  0  0  0  0  0  0  0  0  0
   15.2126   -1.9262   -8.1390 C   0  0  0  0  0  0  0  0  0  0  0  0
   13.2246   -1.3916   -6.7712 C   0  0  0  0  0  0  0  0  0  0  0  0
   10.9936   -1.2536   -5.3721 C   0  0  0  0  0  0  0  0  0  0  0  0
    9.4472   -1.1408   -3.9836 C   0  0  0  0  0  0  0  0  0  0  0  0
    8.5135   -2.6130   -4.1454 C   0  0  0  0  0  0  0  0  0  0  0  0
    9.9378   -2.6593   -3.8290 C   0  0  0  0  0  0  0  0  0  0  0  0
    9.7084   -3.0911   -5.5677 C   0  0  0  0  0  0  0  0  0  0  0  0
   10.9605   -3.4574   -5.9130 C   0  0  0  0  0  0  0  0  0  0  0  0
   11.3749   -3.6450   -7.5314 C   0  0  0  0  0  0  0  0  0  0  0  0
   12.5445   -4.2405   -7.7763 C   0  0  0  0  0  0  0  0  0  0  0  0
   13.7953   -4.0341   -8.4132 C   0  0  0  0  0  0  0  0  0  0  0  0
   15.0154   -4.2710   -7.1326 C   0  0  0  0  0  0  0  0  0  0  0  0
   16.0444   -4.7954   -8.1830 C   0  0  0  0  0  0  0  0  0  0  0  0
   16.4317   -4.2114   -9.2690 C   0  0  0  0  0  0  0  0  0  0  0  0
   18.1501   -4.5809   -9.3263 C   0  0  0  0  0  0  0  0  0  0  0  0
   19.7546   -4.4703   -8.8389 C   0  0  0  0  0  0  0  0  0  0  0  0
   20.2772   -5.2859  -10.3654 C   0  0  0  0  0  0  0  0  0  0  0  0
   21.4853   -4.9367  -10.7768 C   0  0  0  0  0  0  0  0  0  0  0  0
   21.6121   -5.6792  -11.9315 C   0  0  0  0  0  0  0  0  0  0  0  0
   22.8539   -5.9908  -11.6068 C   0  0  0  0  0  0  0  0  0  0  0  0
   23.4543   -6.2468  -13.1045 C   0  0  0  0  0  0  0  0  0  0  0  0
   24.7410   -5.7763  -12.3660 C   0  0  0  0  0  0  0  0  0  0  0  0
   25.5036   -6.5614  -13.2320 C   0  0  0  0  0  0  0  0  0  0  0  0
   25.8305   -6.9909  -14.4364 C   0  0  0  0  0  0  0  0  0  0  0  0
   27.2681   -7.3029  -15.3318 C   0  0  0  0  0  0  0  0  0  0  0  0
   28.6976   -7.0980  -14.6144 C   0  0  0  0  0  0  0  0  0  0  0  0
   29.4352   -7.8115  -16.1284 C   0  0  0  0  0  0  0  0  0  0  0  0
   30.8011   -7.4153  -15.3990 C   0  0  0  0  0  0  0  0  0  0  0  0
   32.6260   -7.1596  -15.6616 C   0  0  0  0  0  0  0  0  0  0  0  0
   34.0466   -7.1541  -16.1480 C   0  0  0  0  0  0  0  0  0  0  0  0
   34.7901   -8.2939  -17.3472 C   0  0  0  0  0  0  0  0  0  0  0  0
   36.2288   -7.7430  -17.3967 C   0  0  0  0  0  0  0  0  0  0  0  0
   35.6886   -8.4430  -18.6794 C   0  0  0  0  0  0  0  0  0  0  0  0
   34.2131   -7.0714  -18.6941 C   0  0  0  0  0  0  0  0  0  0  0  0
   31.9920   -6.3945  -17.6874 C   0  0  0  0  0  0  0  0  0  0  0  0
   29.9363   -5.8183  -16.3417 C   0  0  0  0  0  0  0  0  0  0  0  0
   27.4765   -5.1038  -15.2051 C   0  0  0  0  0  0  0  0  0  0  0  0
   25.2451   -4.3621  -13.9070 C   0  0  0  0  0  0  0  0  0  0  0  0
   22.6471   -3.7695  -12.4793 C   0  0  0  0  0  0  0  0  0  0  0  0
   20.3321   -3.2119  -11.1535 C   0  0  0  0  0  0  0  0  0  0  0  0
   14.5462   -2.6167   -7.1856 H   0  0  0  0  0  0  0  0  0  0  0  0
   14.5780   -2.7142   -7.1603 H   0  0  0  0  0  0  0  0  0  0  0  0
   13.5982   -1.8253   -7.4678 H   0  0  0  0  0  0  0  0  0  0  0  0
   11.5702   -1.4408   -5.9931 H   0  0  0  0  0  0  0  0  0  0  0  0
    9.2119   -1.1764   -5.0136 H   0  0  0  0  0  0  0  0  0  0  0  0
    8.3380   -1.0019   -2.4815 H   0  0  0  0  0  0  0  0  0  0  0  0
    7.3971   -2.4659   -5.1243 H   0  0  0  0  0  0  0  0  0  0  0  0
   10.7083   -1.5002   -3.1394 H   0  0  0  0  0  0  0  0  0  0  0  0
    8.8082   -2.7353   -6.2055 H   0  0  0  0  0  0  0  0  0  0  0  0
   11.5631   -2.7347   -4.8574 H   0  0  0  0  0  0  0  0  0  0  0  0
   10.9393   -2.7706   -7.1673 H   0  0  0  0  0  0  0  0  0  0  0  0
   13.4611   -3.9335   -7.4342 H   0  0  0  0  0  0  0  0  0  0  0  0
   12.6176   -4.0361   -9.2323 H   0  0  0  0  0  0  0  0  0  0  0  0
   15.2901   -3.1454   -6.0612 H   0  0  0  0  0  0  0  0  0  0  0  0
   15.3516   -4.3550   -9.2861 H   0  0  0  0  0  0  0  0  0  0  0  0
   16.9935   -3.9153   -8.1770 H   0  0  0  0  0  0  0  0  0  0  0  0
   17.5616   -4.6079  -10.4676 H   0  0  0  0  0  0  0  0  0  0  0  0
   20.7308   -3.6303   -7.9832 H   0  0  0  0  0  0  0  0  0  0  0  0
   19.5583   -5.1919  -11.5729 H   0  0  0  0  0  0  0  0  0  0  0  0
   22.0513   -4.3612  -10.0626 H   0  0  0  0  0  0  0  0  0  0  0  0
   21.4925   -5.6148  -13.0303 H   0  0  0  0  0  0  0  0  0  0  0  0
   23.6234   -5.1279  -11.0370 H   0  0  0  0  0  0  0  0  0  0  0  0
   22.9213   -6.4285  -14.4971 H   0  0  0  0  0  0  0  0  0  0  0  0
   25.9316   -5.2975  -12.2660 H   0  0  0  0  0  0  0  0  0  0  0  0
   25.4046   -6.3506  -14.5654 H   0  0  0  0  0  0  0  0  0  0  0  0
   26.7146   -6.4842  -13.5437 H   0  0  0  0  0  0  0  0  0  0  0  0
   27.3691   -7.1405  -16.5503 H   0  0  0  0  0  0  0  0  0  0  0  0
   29.8870   -6.2459  -14.2063 H   0  0  0  0  0  0  0  0  0  0  0  0
   29.7835   -7.7316  -17.5280 H   0  0  0  0  0  0  0  0  0  0  0  0
   31.7817   -6.6281  -15.5379 H   0  0  0  0  0  0  0  0  0  0  0  0
   32.9963   -7.3981  -16.6336 H   0  0  0  0  0  0  0  0  0  0  0  0
   34.4748   -7.2642  -17.1965 H   0  0  0  0  0  0  0  0  0  0  0  0
   34.0841   -8.7127  -18.7478 H   0  0  0  0  0  0  0  0  0  0  0  0
   37.0139   -7.8259  -18.0702 H   0  0  0  0  0  0  0  0  0  0  0  0
   35.7398   -8.9804  -20.0176 H   0  0  0  0  0  0  0  0  0  0  0  0
   36.0212   -7.6135  -19.2629 H   0  0  0  0  0  0  0  0  0  0  0  0
   33.4571   -7.0530  -18.7020 H   0  0  0  0  0  0  0  0  0  0  0  0
   31.2794   -6.7185  -17.3669 H   0  0  0  0  0  0  0  0  0  0  0  0
   28.8516   -5.8810  -15.9734 H   0  0  0  0  0  0  0  0  0  0  0  0
   26.5856   -5.3037  -14.5872 H   0  0  0  0  0  0  0  0  0  0  0  0
   23.6572   -4.5446  -13.3943 H   0  0  0  0  0  0  0  0  0  0  0  0
   19.5040   -3.1074   -9.8040 H   0  0  0  0  0  0  0  0  0  0  0  0
  1  2  2  0  0  0  0
  1 43  1  0  0  0  0
  1 44  1  0  0  0  0
  2  3  1  0  0  0  0
  2 42  1  0  0  0  0
  3  4  2  3  0  0  0
  3 45  1  0  0  0  0
  4  5  1  0  0  0  0
  4 46  1  0  0  0  0
  5  6  2  3  0  0  0
  5 47  1  0  0  0  0
  6  7  1  0  0  0  0
  6 48  1  0  0  0  0
  7  8  2  3  0  0  0
  7 49  1  0  0  0  0
  8  9  1  0  0  0  0
  8 50  1  0  0  0  0
  9 10  2  3  0  0  0
  9 51  1  0  0  0  0
 10 11  1  0  0  0  0
 10 52  1  0  0  0  0
 11 12  2  3  0  0  0
 11 53  1  0  0  0  0
 12 13  1  0  0  0  0
 12 54  1  0  0  0  0
 13 14  2  3  0  0  0
 13 55  1  0  0  0  0
 14 15  1  0  0  0  0
 14 56  1  0  0  0  0
 15 16  2  3  0  0  0
 15 57  1  0  0  0  0
 16 17  1  0  0  0  0
 16 58  1  0  0  0  0
 17 18  2  3  0  0  0
 17 59  1  0  0  0  0
 18 19  1  0  0  0  0
 18 60  1  0  0  0  0
 19 20  2  3  0  0  0
 19 61  1  0  0  0  0
 20 21  1  0  0  0  0
 20 62  1  0  0  0  0
 21 22  2  3  0  0  0
 21 63  1  0  0  0  0
 22 23  1  0  0  0  0
 22 64  1  0  0  0  0
 23 24  2  3  0  0  0
 23 65  1  0  0  0  0
 24 25  1  0  0  0  0
 24 66  1  0  0  0  0
 25 26  2  3  0  0  0
 25 67  1  0  0  0  0
 26 27  1  0  0  0  0
 26 68  1  0  0  0  0
 27 28  2  3  0  0  0
 27 69  1  0  0  0  0
 28 29  1  0  0  0  0
 28 70  1  0  0  0  0
 29 30  2  3  0  0  0
 29 71  1  0  0  0  0
 30 31  1  0  0  0  0
 30 72  1  0  0  0  0
 31 32  2  3  0  0  0
 31 73  1  0  0  0  0
 32 33  1  0  0  0  0
 32 74  1  0  0  0  0
 33 34  2  3  0  0  0
 33 75  1  0  0  0  0
 34 35  1  0  0  0  0
 34 76  1  0  0  0  0
 35 36  2  3  0  0  0
 35 77  1  0  0  0  0
 36 37  1  0  0  0  0
 36 78  1  0  0  0  0
 37 38  2  3  0  0  0
 37 79  1  0  0  0  0
 38 39  1  0  0  0  0
 38 80  1  0  0  0  0
 39 40  2  3  0  0  0
 39 81  1  0  0  0  0
 40 41  1  0  0  0  0
 40 82  1  0  0  0  0
 41 42  2  3  0  0  0
 41 83  1  0  0  0  0
 42 84  1  0  0  0  0
M  END
$$$$
