
 OpenBabel04232217003D

236235  0  0  0  0  0  0  0  0999 V2000
    2.8421    0.0952    0.9962 O   0  0  0  0  0  0  0  0  0  0  0  0
    2.3159    0.0055   -0.1014 C   0  0  0  0  0  0  0  0  0  0  0  0
    3.0852   -0.0977   -1.3906 C   0  0  0  0  0  0  0  0  0  0  0  0
    4.5712   -0.0698   -1.1019 C   0  0  0  0  0  0  0  0  0  0  0  0
    5.2886   -0.1682   -2.3313 O   0  0  0  0  0  0  0  0  0  0  0  0
    6.6892   -0.1429   -2.0715 C   0  0  0  0  0  0  0  0  0  0  0  0
    7.4391   -0.2499   -3.3838 C   0  0  0  0  0  0  0  0  0  0  0  0
    8.9358   -0.2222   -3.1223 C   0  0  0  0  0  0  0  0  0  0  0  0
    9.7019   -0.3287   -4.4274 C   0  0  0  0  0  0  0  0  0  0  0  0
   11.1952   -0.3021   -4.1558 C   0  0  0  0  0  0  0  0  0  0  0  0
   11.9590   -0.4106   -5.4620 C   0  0  0  0  0  0  0  0  0  0  0  0
   13.4512   -0.3821   -5.1912 C   0  0  0  0  0  0  0  0  0  0  0  0
   14.2140   -0.4887   -6.4978 C   0  0  0  0  0  0  0  0  0  0  0  0
   15.7059   -0.4622   -6.2268 C   0  0  0  0  0  0  0  0  0  0  0  0
   16.4685   -0.5687   -7.5334 C   0  0  0  0  0  0  0  0  0  0  0  0
   17.9604   -0.5402   -7.2625 C   0  0  0  0  0  0  0  0  0  0  0  0
   18.7230   -0.6448   -8.5692 C   0  0  0  0  0  0  0  0  0  0  0  0
   20.2148   -0.6183   -8.2982 C   0  0  0  0  0  0  0  0  0  0  0  0
   20.9774   -0.7248   -9.6047 C   0  0  0  0  0  0  0  0  0  0  0  0
   22.4692   -0.6963   -9.3338 C   0  0  0  0  0  0  0  0  0  0  0  0
   23.2318   -0.8008  -10.6405 C   0  0  0  0  0  0  0  0  0  0  0  0
   24.7236   -0.7703  -10.3698 C   0  0  0  0  0  0  0  0  0  0  0  0
   25.4862   -0.8729  -11.6766 C   0  0  0  0  0  0  0  0  0  0  0  0
   26.9780   -0.8443  -11.4058 C   0  0  0  0  0  0  0  0  0  0  0  0
   27.7406   -0.9469  -12.7126 C   0  0  0  0  0  0  0  0  0  0  0  0
   29.2324   -0.9204  -12.4416 C   0  0  0  0  0  0  0  0  0  0  0  0
   29.9950   -1.0229  -13.7485 C   0  0  0  0  0  0  0  0  0  0  0  0
   31.4868   -0.9964  -13.4774 C   0  0  0  0  0  0  0  0  0  0  0  0
   32.2494   -1.0989  -14.7843 C   0  0  0  0  0  0  0  0  0  0  0  0
   33.7412   -1.0724  -14.5133 C   0  0  0  0  0  0  0  0  0  0  0  0
   34.5038   -1.1750  -15.8201 C   0  0  0  0  0  0  0  0  0  0  0  0
   35.9956   -1.1485  -15.5491 C   0  0  0  0  0  0  0  0  0  0  0  0
   36.7582   -1.2530  -16.8558 C   0  0  0  0  0  0  0  0  0  0  0  0
   38.2501   -1.2265  -16.5847 C   0  0  0  0  0  0  0  0  0  0  0  0
   39.0126   -1.3310  -17.8914 C   0  0  0  0  0  0  0  0  0  0  0  0
   40.5045   -1.3046  -17.6204 C   0  0  0  0  0  0  0  0  0  0  0  0
   41.2670   -1.4071  -18.9273 C   0  0  0  0  0  0  0  0  0  0  0  0
   42.7589   -1.3826  -18.6561 C   0  0  0  0  0  0  0  0  0  0  0  0
   43.5214   -1.4831  -19.9631 C   0  0  0  0  0  0  0  0  0  0  0  0
   45.0133   -1.4606  -19.6917 C   0  0  0  0  0  0  0  0  0  0  0  0
   45.7758   -1.5592  -20.9989 C   0  0  0  0  0  0  0  0  0  0  0  0
   47.2677   -1.5387  -20.7274 C   0  0  0  0  0  0  0  0  0  0  0  0
   48.0302   -1.6372  -22.0346 C   0  0  0  0  0  0  0  0  0  0  0  0
   49.5221   -1.6167  -21.7631 C   0  0  0  0  0  0  0  0  0  0  0  0
   50.2846   -1.7153  -23.0702 C   0  0  0  0  0  0  0  0  0  0  0  0
   51.7765   -1.6948  -22.7987 C   0  0  0  0  0  0  0  0  0  0  0  0
   52.5390   -1.7933  -24.1059 C   0  0  0  0  0  0  0  0  0  0  0  0
   54.0309   -1.7708  -23.8346 C   0  0  0  0  0  0  0  0  0  0  0  0
   54.7934   -1.8673  -25.1419 C   0  0  0  0  0  0  0  0  0  0  0  0
   56.2853   -1.8468  -24.8704 C   0  0  0  0  0  0  0  0  0  0  0  0
   57.0478   -1.9433  -26.1777 C   0  0  0  0  0  0  0  0  0  0  0  0
   58.5397   -1.9249  -25.9061 C   0  0  0  0  0  0  0  0  0  0  0  0
   59.3022   -2.0233  -27.2132 C   0  0  0  0  0  0  0  0  0  0  0  0
   60.7941   -2.0030  -26.9417 C   0  0  0  0  0  0  0  0  0  0  0  0
   61.5567   -2.0994  -28.2490 C   0  0  0  0  0  0  0  0  0  0  0  0
   63.0485   -2.0810  -27.9774 C   0  0  0  0  0  0  0  0  0  0  0  0
   63.8111   -2.1755  -29.2849 C   0  0  0  0  0  0  0  0  0  0  0  0
   65.3029   -2.1570  -29.0132 C   0  0  0  0  0  0  0  0  0  0  0  0
   66.0655   -2.2495  -30.3208 C   0  0  0  0  0  0  0  0  0  0  0  0
   67.5573   -2.2310  -30.0492 C   0  0  0  0  0  0  0  0  0  0  0  0
   68.3199   -2.3235  -31.3568 C   0  0  0  0  0  0  0  0  0  0  0  0
   69.8117   -2.3050  -31.0852 C   0  0  0  0  0  0  0  0  0  0  0  0
   70.5743   -2.3975  -32.3928 C   0  0  0  0  0  0  0  0  0  0  0  0
   72.0661   -2.3791  -32.1211 C   0  0  0  0  0  0  0  0  0  0  0  0
   72.8287   -2.4715  -33.4287 C   0  0  0  0  0  0  0  0  0  0  0  0
   74.3206   -2.4531  -33.1571 C   0  0  0  0  0  0  0  0  0  0  0  0
   75.0831   -2.5455  -34.4647 C   0  0  0  0  0  0  0  0  0  0  0  0
   76.5750   -2.5271  -34.1931 C   0  0  0  0  0  0  0  0  0  0  0  0
   77.3375   -2.6216  -35.5005 C   0  0  0  0  0  0  0  0  0  0  0  0
   78.8294   -2.6031  -35.2289 C   0  0  0  0  0  0  0  0  0  0  0  0
   79.5919   -2.6976  -36.5364 C   0  0  0  0  0  0  0  0  0  0  0  0
   81.0838   -2.6792  -36.2648 C   0  0  0  0  0  0  0  0  0  0  0  0
   81.8464   -2.7736  -37.5722 C   0  0  0  0  0  0  0  0  0  0  0  0
   83.3386   -2.7552  -37.3007 C   0  0  0  0  0  0  0  0  0  0  0  0
   84.1017   -2.8477  -38.6084 C   0  0  0  0  0  0  0  0  0  0  0  0
   85.5941   -2.8293  -38.3375 C   0  0  0  0  0  0  0  0  0  0  0  0
   86.3579   -2.9218  -39.6458 C   0  0  0  0  0  0  0  0  0  0  0  0
   87.8526   -2.9056  -39.3769 C   0  0  0  0  0  0  0  0  0  0  0  0
   88.6256   -3.0000  -40.6835 C   0  0  0  0  0  0  0  0  0  0  0  0
   90.1160   -2.9835  -40.4107 C   0  0  0  0  0  0  0  0  0  0  0  0
    1.2176   -0.0042   -0.1965 H   0  0  0  0  0  0  0  0  0  0  0  0
    2.8055    0.7361   -2.0428 H   0  0  0  0  0  0  0  0  0  0  0  0
    2.8106   -1.0279   -1.8987 H   0  0  0  0  0  0  0  0  0  0  0  0
    4.8477   -0.9099   -0.4512 H   0  0  0  0  0  0  0  0  0  0  0  0
    4.8425    0.8664   -0.5963 H   0  0  0  0  0  0  0  0  0  0  0  0
    6.9574   -0.9841   -1.4209 H   0  0  0  0  0  0  0  0  0  0  0  0
    6.9525    0.7957   -1.5687 H   0  0  0  0  0  0  0  0  0  0  0  0
    7.1511    0.5735   -4.0492 H   0  0  0  0  0  0  0  0  0  0  0  0
    7.1579   -1.1748   -3.9026 H   0  0  0  0  0  0  0  0  0  0  0  0
    9.2147   -1.0514   -2.4596 H   0  0  0  0  0  0  0  0  0  0  0  0
    9.2080    0.7078   -2.6070 H   0  0  0  0  0  0  0  0  0  0  0  0
    9.4290    0.5023   -5.0889 H   0  0  0  0  0  0  0  0  0  0  0  0
    9.4337   -1.2588   -4.9426 H   0  0  0  0  0  0  0  0  0  0  0  0
   11.4702   -1.1319   -3.4930 H   0  0  0  0  0  0  0  0  0  0  0  0
   11.4658    0.6285   -3.6417 H   0  0  0  0  0  0  0  0  0  0  0  0
   11.6842    0.4185   -6.1255 H   0  0  0  0  0  0  0  0  0  0  0  0
   11.6906   -1.3419   -5.9755 H   0  0  0  0  0  0  0  0  0  0  0  0
   13.7268   -1.2121   -4.5291 H   0  0  0  0  0  0  0  0  0  0  0  0
   13.7201    0.5486   -4.6767 H   0  0  0  0  0  0  0  0  0  0  0  0
   13.9396    0.3421   -7.1595 H   0  0  0  0  0  0  0  0  0  0  0  0
   13.9444   -1.4187   -7.0132 H   0  0  0  0  0  0  0  0  0  0  0  0
   15.9804   -1.2929   -5.5652 H   0  0  0  0  0  0  0  0  0  0  0  0
   15.9756    0.4678   -5.7115 H   0  0  0  0  0  0  0  0  0  0  0  0
   16.1931    0.2613   -8.1956 H   0  0  0  0  0  0  0  0  0  0  0  0
   16.1999   -1.4994   -8.0481 H   0  0  0  0  0  0  0  0  0  0  0  0
   18.2361   -1.3710   -6.6014 H   0  0  0  0  0  0  0  0  0  0  0  0
   18.2289    0.3898   -6.7466 H   0  0  0  0  0  0  0  0  0  0  0  0
   18.4483    0.1868   -9.2297 H   0  0  0  0  0  0  0  0  0  0  0  0
   18.4535   -1.5742   -9.0858 H   0  0  0  0  0  0  0  0  0  0  0  0
   20.4893   -1.4490   -7.6365 H   0  0  0  0  0  0  0  0  0  0  0  0
   20.4845    0.3118   -7.7828 H   0  0  0  0  0  0  0  0  0  0  0  0
   20.7019    0.1052  -10.2669 H   0  0  0  0  0  0  0  0  0  0  0  0
   20.7087   -1.6555  -10.1194 H   0  0  0  0  0  0  0  0  0  0  0  0
   22.7450   -1.5271   -8.6727 H   0  0  0  0  0  0  0  0  0  0  0  0
   22.7377    0.2338   -8.8179 H   0  0  0  0  0  0  0  0  0  0  0  0
   22.9550    0.0292  -11.3021 H   0  0  0  0  0  0  0  0  0  0  0  0
   22.9644   -1.7316  -11.1558 H   0  0  0  0  0  0  0  0  0  0  0  0
   25.0006   -1.6012   -9.7093 H   0  0  0  0  0  0  0  0  0  0  0  0
   24.9908    0.1598   -9.8533 H   0  0  0  0  0  0  0  0  0  0  0  0
   25.2102   -0.0412  -12.3366 H   0  0  0  0  0  0  0  0  0  0  0  0
   25.2180   -1.8023  -12.1939 H   0  0  0  0  0  0  0  0  0  0  0  0
   27.2540   -1.6760  -10.7459 H   0  0  0  0  0  0  0  0  0  0  0  0
   27.2463    0.0851  -10.8885 H   0  0  0  0  0  0  0  0  0  0  0  0
   27.4657   -0.1144  -13.3720 H   0  0  0  0  0  0  0  0  0  0  0  0
   27.4713   -1.8756  -13.2306 H   0  0  0  0  0  0  0  0  0  0  0  0
   29.5073   -1.7528  -11.7823 H   0  0  0  0  0  0  0  0  0  0  0  0
   29.5017    0.0083  -11.9237 H   0  0  0  0  0  0  0  0  0  0  0  0
   29.7201   -0.1904  -14.4078 H   0  0  0  0  0  0  0  0  0  0  0  0
   29.7257   -1.9516  -14.2664 H   0  0  0  0  0  0  0  0  0  0  0  0
   31.7617   -1.8289  -12.8181 H   0  0  0  0  0  0  0  0  0  0  0  0
   31.7561   -0.0677  -12.9595 H   0  0  0  0  0  0  0  0  0  0  0  0
   31.9745   -0.2665  -15.4436 H   0  0  0  0  0  0  0  0  0  0  0  0
   31.9801   -2.0277  -15.3022 H   0  0  0  0  0  0  0  0  0  0  0  0
   34.0161   -1.9049  -13.8539 H   0  0  0  0  0  0  0  0  0  0  0  0
   34.0105   -0.1437  -13.9953 H   0  0  0  0  0  0  0  0  0  0  0  0
   34.2289   -0.3425  -16.4795 H   0  0  0  0  0  0  0  0  0  0  0  0
   34.2345   -2.1037  -16.3380 H   0  0  0  0  0  0  0  0  0  0  0  0
   36.2703   -1.9801  -14.8886 H   0  0  0  0  0  0  0  0  0  0  0  0
   36.2651   -0.2191  -15.0324 H   0  0  0  0  0  0  0  0  0  0  0  0
   36.4835   -0.4214  -17.5163 H   0  0  0  0  0  0  0  0  0  0  0  0
   36.4887   -2.1824  -17.3724 H   0  0  0  0  0  0  0  0  0  0  0  0
   38.5247   -2.0581  -15.9242 H   0  0  0  0  0  0  0  0  0  0  0  0
   38.5196   -0.2972  -16.0681 H   0  0  0  0  0  0  0  0  0  0  0  0
   38.7379   -0.4994  -18.5519 H   0  0  0  0  0  0  0  0  0  0  0  0
   38.7431   -2.2604  -18.4081 H   0  0  0  0  0  0  0  0  0  0  0  0
   40.7793   -2.1370  -16.9610 H   0  0  0  0  0  0  0  0  0  0  0  0
   40.7738   -0.3758  -17.1025 H   0  0  0  0  0  0  0  0  0  0  0  0
   40.9932   -0.5738  -19.5860 H   0  0  0  0  0  0  0  0  0  0  0  0
   40.9967   -2.3351  -19.4459 H   0  0  0  0  0  0  0  0  0  0  0  0
   43.0329   -2.2167  -17.9984 H   0  0  0  0  0  0  0  0  0  0  0  0
   43.0291   -0.4552  -18.1362 H   0  0  0  0  0  0  0  0  0  0  0  0
   43.2484   -0.6482  -20.6201 H   0  0  0  0  0  0  0  0  0  0  0  0
   43.2502   -2.4098  -20.4837 H   0  0  0  0  0  0  0  0  0  0  0  0
   45.2864   -2.2964  -19.0358 H   0  0  0  0  0  0  0  0  0  0  0  0
   45.2843   -0.5346  -19.1699 H   0  0  0  0  0  0  0  0  0  0  0  0
   45.5037   -0.7226  -21.6542 H   0  0  0  0  0  0  0  0  0  0  0  0
   45.5038   -2.4845  -21.5214 H   0  0  0  0  0  0  0  0  0  0  0  0
   47.5398   -2.3752  -20.0721 H   0  0  0  0  0  0  0  0  0  0  0  0
   47.5398   -0.6134  -20.2049 H   0  0  0  0  0  0  0  0  0  0  0  0
   47.7581   -0.8006  -22.6899 H   0  0  0  0  0  0  0  0  0  0  0  0
   47.7581   -2.5625  -22.5571 H   0  0  0  0  0  0  0  0  0  0  0  0
   49.7942   -2.4533  -21.1078 H   0  0  0  0  0  0  0  0  0  0  0  0
   49.7942   -0.6914  -21.2405 H   0  0  0  0  0  0  0  0  0  0  0  0
   50.0125   -0.8787  -23.7255 H   0  0  0  0  0  0  0  0  0  0  0  0
   50.0125   -2.6406  -23.5928 H   0  0  0  0  0  0  0  0  0  0  0  0
   52.0486   -2.5313  -22.1434 H   0  0  0  0  0  0  0  0  0  0  0  0
   52.0486   -0.7695  -22.2762 H   0  0  0  0  0  0  0  0  0  0  0  0
   52.2659   -0.9575  -24.7618 H   0  0  0  0  0  0  0  0  0  0  0  0
   52.2680   -2.7193  -24.6278 H   0  0  0  0  0  0  0  0  0  0  0  0
   54.3042   -2.6074  -23.1798 H   0  0  0  0  0  0  0  0  0  0  0  0
   54.3018   -0.8455  -23.3115 H   0  0  0  0  0  0  0  0  0  0  0  0
   54.5211   -1.0299  -25.7960 H   0  0  0  0  0  0  0  0  0  0  0  0
   54.5216   -2.7920  -25.6657 H   0  0  0  0  0  0  0  0  0  0  0  0
   56.5576   -2.6842  -24.2163 H   0  0  0  0  0  0  0  0  0  0  0  0
   56.5572   -0.9222  -24.3466 H   0  0  0  0  0  0  0  0  0  0  0  0
   56.7766   -1.1052  -26.8313 H   0  0  0  0  0  0  0  0  0  0  0  0
   56.7749   -2.8673  -26.7022 H   0  0  0  0  0  0  0  0  0  0  0  0
   58.8108   -2.7622  -25.2514 H   0  0  0  0  0  0  0  0  0  0  0  0
   58.8128   -1.0003  -25.3828 H   0  0  0  0  0  0  0  0  0  0  0  0
   59.0302   -1.1868  -27.8685 H   0  0  0  0  0  0  0  0  0  0  0  0
   59.0301   -2.9487  -27.7358 H   0  0  0  0  0  0  0  0  0  0  0  0
   61.0664   -2.8403  -26.2876 H   0  0  0  0  0  0  0  0  0  0  0  0
   61.0660   -1.0783  -26.4179 H   0  0  0  0  0  0  0  0  0  0  0  0
   61.2854   -1.2612  -28.9026 H   0  0  0  0  0  0  0  0  0  0  0  0
   61.2838   -3.0234  -28.7736 H   0  0  0  0  0  0  0  0  0  0  0  0
   63.3200   -2.9200  -27.3250 H   0  0  0  0  0  0  0  0  0  0  0  0
   63.3213   -1.1577  -27.4516 H   0  0  0  0  0  0  0  0  0  0  0  0
   63.5396   -1.3364  -29.9372 H   0  0  0  0  0  0  0  0  0  0  0  0
   63.5383   -3.0987  -29.8107 H   0  0  0  0  0  0  0  0  0  0  0  0
   65.5746   -2.9969  -28.3620 H   0  0  0  0  0  0  0  0  0  0  0  0
   65.5755   -1.2344  -28.4862 H   0  0  0  0  0  0  0  0  0  0  0  0
   65.7938   -1.4096  -30.9721 H   0  0  0  0  0  0  0  0  0  0  0  0
   65.7930   -3.1721  -30.8479 H   0  0  0  0  0  0  0  0  0  0  0  0
   67.8290   -3.0709  -29.3980 H   0  0  0  0  0  0  0  0  0  0  0  0
   67.8298   -1.3084  -29.5221 H   0  0  0  0  0  0  0  0  0  0  0  0
   68.0482   -1.4836  -32.0080 H   0  0  0  0  0  0  0  0  0  0  0  0
   68.0474   -3.2461  -31.8839 H   0  0  0  0  0  0  0  0  0  0  0  0
   70.0834   -3.1449  -30.4340 H   0  0  0  0  0  0  0  0  0  0  0  0
   70.0842   -1.3824  -30.5581 H   0  0  0  0  0  0  0  0  0  0  0  0
   70.3026   -1.5576  -33.0440 H   0  0  0  0  0  0  0  0  0  0  0  0
   70.3018   -3.3201  -32.9198 H   0  0  0  0  0  0  0  0  0  0  0  0
   72.3378   -3.2189  -31.4699 H   0  0  0  0  0  0  0  0  0  0  0  0
   72.3386   -1.4564  -31.5941 H   0  0  0  0  0  0  0  0  0  0  0  0
   72.5570   -1.6317  -34.0800 H   0  0  0  0  0  0  0  0  0  0  0  0
   72.5562   -3.3941  -33.9558 H   0  0  0  0  0  0  0  0  0  0  0  0
   74.5922   -3.2929  -32.5059 H   0  0  0  0  0  0  0  0  0  0  0  0
   74.5931   -1.5305  -32.6300 H   0  0  0  0  0  0  0  0  0  0  0  0
   74.8114   -1.7057  -35.1160 H   0  0  0  0  0  0  0  0  0  0  0  0
   74.8106   -3.4682  -34.9918 H   0  0  0  0  0  0  0  0  0  0  0  0
   76.8464   -3.3661  -33.5407 H   0  0  0  0  0  0  0  0  0  0  0  0
   76.8477   -1.6038  -33.6673 H   0  0  0  0  0  0  0  0  0  0  0  0
   77.0660   -1.7825  -36.1529 H   0  0  0  0  0  0  0  0  0  0  0  0
   77.0648   -3.5449  -36.0263 H   0  0  0  0  0  0  0  0  0  0  0  0
   79.1008   -3.4422  -34.5765 H   0  0  0  0  0  0  0  0  0  0  0  0
   79.1021   -1.6798  -34.7031 H   0  0  0  0  0  0  0  0  0  0  0  0
   79.3204   -1.8586  -37.1888 H   0  0  0  0  0  0  0  0  0  0  0  0
   79.3192   -3.6209  -37.0622 H   0  0  0  0  0  0  0  0  0  0  0  0
   81.3552   -3.5182  -35.6123 H   0  0  0  0  0  0  0  0  0  0  0  0
   81.3565   -1.7559  -35.7389 H   0  0  0  0  0  0  0  0  0  0  0  0
   81.5749   -1.9346  -38.2246 H   0  0  0  0  0  0  0  0  0  0  0  0
   81.5736   -3.6969  -38.0980 H   0  0  0  0  0  0  0  0  0  0  0  0
   83.6099   -3.5951  -36.6493 H   0  0  0  0  0  0  0  0  0  0  0  0
   83.6108   -1.8326  -36.7735 H   0  0  0  0  0  0  0  0  0  0  0  0
   83.8293   -2.0078  -39.2595 H   0  0  0  0  0  0  0  0  0  0  0  0
   83.8285   -3.7703  -39.1353 H   0  0  0  0  0  0  0  0  0  0  0  0
   85.8650   -3.6689  -37.6861 H   0  0  0  0  0  0  0  0  0  0  0  0
   85.8659   -1.9069  -37.8102 H   0  0  0  0  0  0  0  0  0  0  0  0
   86.0865   -2.0813  -40.2957 H   0  0  0  0  0  0  0  0  0  0  0  0
   86.0835   -3.8434  -40.1728 H   0  0  0  0  0  0  0  0  0  0  0  0
   88.1201   -3.7445  -38.7222 H   0  0  0  0  0  0  0  0  0  0  0  0
   88.1234   -1.9835  -38.8474 H   0  0  0  0  0  0  0  0  0  0  0  0
   88.3585   -2.1605  -41.3358 H   0  0  0  0  0  0  0  0  0  0  0  0
   88.3551   -3.9223  -41.2105 H   0  0  0  0  0  0  0  0  0  0  0  0
   90.4031   -2.0585  -39.9016 H   0  0  0  0  0  0  0  0  0  0  0  0
   90.6738   -3.0512  -41.3478 H   0  0  0  0  0  0  0  0  0  0  0  0
   90.3997   -3.8282  -39.7758 H   0  0  0  0  0  0  0  0  0  0  0  0
  1  2  2  0  0  0  0
  2  3  1  0  0  0  0
  2 81  1  0  0  0  0
  3  4  1  0  0  0  0
  3 82  1  0  0  0  0
  3 83  1  0  0  0  0
  4  5  1  0  0  0  0
  4 84  1  0  0  0  0
  4 85  1  0  0  0  0
  5  6  1  0  0  0  0
  6  7  1  0  0  0  0
  6 86  1  0  0  0  0
  6 87  1  0  0  0  0
  7  8  1  0  0  0  0
  7 88  1  0  0  0  0
  7 89  1  0  0  0  0
  8  9  1  0  0  0  0
  8 90  1  0  0  0  0
  8 91  1  0  0  0  0
  9 10  1  0  0  0  0
  9 92  1  0  0  0  0
  9 93  1  0  0  0  0
 10 11  1  0  0  0  0
 10 94  1  0  0  0  0
 10 95  1  0  0  0  0
 11 12  1  0  0  0  0
 11 96  1  0  0  0  0
 11 97  1  0  0  0  0
 12 13  1  0  0  0  0
 12 98  1  0  0  0  0
 12 99  1  0  0  0  0
 13 14  1  0  0  0  0
 13100  1  0  0  0  0
 13101  1  0  0  0  0
 14 15  1  0  0  0  0
 14102  1  0  0  0  0
 14103  1  0  0  0  0
 15 16  1  0  0  0  0
 15104  1  0  0  0  0
 15105  1  0  0  0  0
 16 17  1  0  0  0  0
 16106  1  0  0  0  0
 16107  1  0  0  0  0
 17 18  1  0  0  0  0
 17108  1  0  0  0  0
 17109  1  0  0  0  0
 18 19  1  0  0  0  0
 18110  1  0  0  0  0
 18111  1  0  0  0  0
 19 20  1  0  0  0  0
 19112  1  0  0  0  0
 19113  1  0  0  0  0
 20 21  1  0  0  0  0
 20114  1  0  0  0  0
 20115  1  0  0  0  0
 21 22  1  0  0  0  0
 21116  1  0  0  0  0
 21117  1  0  0  0  0
 22 23  1  0  0  0  0
 22118  1  0  0  0  0
 22119  1  0  0  0  0
 23 24  1  0  0  0  0
 23120  1  0  0  0  0
 23121  1  0  0  0  0
 24 25  1  0  0  0  0
 24122  1  0  0  0  0
 24123  1  0  0  0  0
 25 26  1  0  0  0  0
 25124  1  0  0  0  0
 25125  1  0  0  0  0
 26 27  1  0  0  0  0
 26126  1  0  0  0  0
 26127  1  0  0  0  0
 27 28  1  0  0  0  0
 27128  1  0  0  0  0
 27129  1  0  0  0  0
 28 29  1  0  0  0  0
 28130  1  0  0  0  0
 28131  1  0  0  0  0
 29 30  1  0  0  0  0
 29132  1  0  0  0  0
 29133  1  0  0  0  0
 30 31  1  0  0  0  0
 30134  1  0  0  0  0
 30135  1  0  0  0  0
 31 32  1  0  0  0  0
 31136  1  0  0  0  0
 31137  1  0  0  0  0
 32 33  1  0  0  0  0
 32138  1  0  0  0  0
 32139  1  0  0  0  0
 33 34  1  0  0  0  0
 33140  1  0  0  0  0
 33141  1  0  0  0  0
 34 35  1  0  0  0  0
 34142  1  0  0  0  0
 34143  1  0  0  0  0
 35 36  1  0  0  0  0
 35144  1  0  0  0  0
 35145  1  0  0  0  0
 36 37  1  0  0  0  0
 36146  1  0  0  0  0
 36147  1  0  0  0  0
 37 38  1  0  0  0  0
 37148  1  0  0  0  0
 37149  1  0  0  0  0
 38 39  1  0  0  0  0
 38150  1  0  0  0  0
 38151  1  0  0  0  0
 39 40  1  0  0  0  0
 39152  1  0  0  0  0
 39153  1  0  0  0  0
 40 41  1  0  0  0  0
 40154  1  0  0  0  0
 40155  1  0  0  0  0
 41 42  1  0  0  0  0
 41156  1  0  0  0  0
 41157  1  0  0  0  0
 42 43  1  0  0  0  0
 42158  1  0  0  0  0
 42159  1  0  0  0  0
 43 44  1  0  0  0  0
 43160  1  0  0  0  0
 43161  1  0  0  0  0
 44 45  1  0  0  0  0
 44162  1  0  0  0  0
 44163  1  0  0  0  0
 45 46  1  0  0  0  0
 45164  1  0  0  0  0
 45165  1  0  0  0  0
 46 47  1  0  0  0  0
 46166  1  0  0  0  0
 46167  1  0  0  0  0
 47 48  1  0  0  0  0
 47168  1  0  0  0  0
 47169  1  0  0  0  0
 48 49  1  0  0  0  0
 48170  1  0  0  0  0
 48171  1  0  0  0  0
 49 50  1  0  0  0  0
 49172  1  0  0  0  0
 49173  1  0  0  0  0
 50 51  1  0  0  0  0
 50174  1  0  0  0  0
 50175  1  0  0  0  0
 51 52  1  0  0  0  0
 51176  1  0  0  0  0
 51177  1  0  0  0  0
 52 53  1  0  0  0  0
 52178  1  0  0  0  0
 52179  1  0  0  0  0
 53 54  1  0  0  0  0
 53180  1  0  0  0  0
 53181  1  0  0  0  0
 54 55  1  0  0  0  0
 54182  1  0  0  0  0
 54183  1  0  0  0  0
 55 56  1  0  0  0  0
 55184  1  0  0  0  0
 55185  1  0  0  0  0
 56 57  1  0  0  0  0
 56186  1  0  0  0  0
 56187  1  0  0  0  0
 57 58  1  0  0  0  0
 57188  1  0  0  0  0
 57189  1  0  0  0  0
 58 59  1  0  0  0  0
 58190  1  0  0  0  0
 58191  1  0  0  0  0
 59 60  1  0  0  0  0
 59192  1  0  0  0  0
 59193  1  0  0  0  0
 60 61  1  0  0  0  0
 60194  1  0  0  0  0
 60195  1  0  0  0  0
 61 62  1  0  0  0  0
 61196  1  0  0  0  0
 61197  1  0  0  0  0
 62 63  1  0  0  0  0
 62198  1  0  0  0  0
 62199  1  0  0  0  0
 63 64  1  0  0  0  0
 63200  1  0  0  0  0
 63201  1  0  0  0  0
 64 65  1  0  0  0  0
 64202  1  0  0  0  0
 64203  1  0  0  0  0
 65 66  1  0  0  0  0
 65204  1  0  0  0  0
 65205  1  0  0  0  0
 66 67  1  0  0  0  0
 66206  1  0  0  0  0
 66207  1  0  0  0  0
 67 68  1  0  0  0  0
 67208  1  0  0  0  0
 67209  1  0  0  0  0
 68 69  1  0  0  0  0
 68210  1  0  0  0  0
 68211  1  0  0  0  0
 69 70  1  0  0  0  0
 69212  1  0  0  0  0
 69213  1  0  0  0  0
 70 71  1  0  0  0  0
 70214  1  0  0  0  0
 70215  1  0  0  0  0
 71 72  1  0  0  0  0
 71216  1  0  0  0  0
 71217  1  0  0  0  0
 72 73  1  0  0  0  0
 72218  1  0  0  0  0
 72219  1  0  0  0  0
 73 74  1  0  0  0  0
 73220  1  0  0  0  0
 73221  1  0  0  0  0
 74 75  1  0  0  0  0
 74222  1  0  0  0  0
 74223  1  0  0  0  0
 75 76  1  0  0  0  0
 75224  1  0  0  0  0
 75225  1  0  0  0  0
 76 77  1  0  0  0  0
 76226  1  0  0  0  0
 76227  1  0  0  0  0
 77 78  1  0  0  0  0
 77228  1  0  0  0  0
 77229  1  0  0  0  0
 78 79  1  0  0  0  0
 78230  1  0  0  0  0
 78231  1  0  0  0  0
 79 80  1  0  0  0  0
 79232  1  0  0  0  0
 79233  1  0  0  0  0
 80234  1  0  0  0  0
 80235  1  0  0  0  0
 80236  1  0  0  0  0
M  END
$$$$
