
 OpenBabel04232216443D

 46 48  0  0  1  0  0  0  0  0999 V2000
    4.7855    0.7091    0.1095 C   0  0  0  0  0  0  0  0  0  0  0  0
    3.5929    1.0614    0.9447 C   0  0  0  0  0  0  0  0  0  0  0  0
    3.2821    0.4727    2.1245 C   0  0  0  0  0  0  0  0  0  0  0  0
    4.3671    0.1362    3.0921 C   0  0  0  0  0  0  0  0  0  0  0  0
    1.8333    0.2594    2.4647 C   0  0  0  0  0  0  0  0  0  0  0  0
    0.9233    1.4739    2.7780 C   0  0  0  0  0  0  0  0  0  0  0  0
    1.6262    2.8287    2.6327 C   0  0  3  0  0  0  0  0  0  0  0  0
    2.3402    2.9222    4.0126 C   0  0  0  0  0  0  0  0  0  0  0  0
    3.5929    3.7333    4.1320 C   0  0  0  0  0  0  0  0  0  0  0  0
    3.3736    5.0873    3.5223 C   0  0  0  0  0  0  0  0  0  0  0  0
    3.6388    5.1255    2.0351 C   0  0  0  0  0  0  0  0  0  0  0  0
    4.5360    6.3162    1.7213 C   0  0  0  0  0  0  0  0  0  0  0  0
    3.2047    4.2435    1.0811 C   0  0  0  0  0  0  0  0  0  0  0  0
    3.4513    4.5615   -0.3876 C   0  0  0  0  0  0  0  0  0  0  0  0
    2.3720    2.9921    1.2672 C   0  0  0  0  0  0  0  0  0  0  0  0
    1.1538   -0.5661    1.6371 C   0  0  0  0  0  0  0  0  0  0  0  0
    0.9909   -0.1081    0.2267 C   0  0  0  0  0  0  0  0  0  0  0  0
    0.1369   -1.0533   -0.5788 C   0  0  0  0  0  0  0  0  0  0  0  0
    1.4773    1.0821   -0.2549 C   0  0  0  0  0  0  0  0  0  0  0  0
    2.5472    1.9357    0.3802 C   0  0  0  0  0  0  0  0  0  0  0  0
    5.5394    1.4902    0.1025 H   0  0  0  0  0  0  0  0  0  0  0  0
    4.4702    0.5170   -0.9327 H   0  0  0  0  0  0  0  0  0  0  0  0
    5.2378   -0.2305    0.4439 H   0  0  0  0  0  0  0  0  0  0  0  0
    4.8098   -0.8385    2.8998 H   0  0  0  0  0  0  0  0  0  0  0  0
    4.0104    0.1787    4.1240 H   0  0  0  0  0  0  0  0  0  0  0  0
    5.1651    0.8943    3.0205 H   0  0  0  0  0  0  0  0  0  0  0  0
    0.4922    1.3429    3.7803 H   0  0  0  0  0  0  0  0  0  0  0  0
    0.0369    1.5101    2.1219 H   0  0  0  0  0  0  0  0  0  0  0  0
    0.8500    3.6084    2.6225 H   0  0  0  0  0  0  0  0  0  0  0  0
    2.5698    1.9355    4.4329 H   0  0  0  0  0  0  0  0  0  0  0  0
    1.5974    3.3294    4.7166 H   0  0  0  0  0  0  0  0  0  0  0  0
    4.4503    3.2129    3.6921 H   0  0  0  0  0  0  0  0  0  0  0  0
    3.8177    3.8398    5.2026 H   0  0  0  0  0  0  0  0  0  0  0  0
    4.0488    5.7663    4.0589 H   0  0  0  0  0  0  0  0  0  0  0  0
    2.3683    5.4755    3.7251 H   0  0  0  0  0  0  0  0  0  0  0  0
    5.2024    6.5544    2.5619 H   0  0  0  0  0  0  0  0  0  0  0  0
    3.9268    7.2013    1.5208 H   0  0  0  0  0  0  0  0  0  0  0  0
    5.2172    6.1297    0.8889 H   0  0  0  0  0  0  0  0  0  0  0  0
    3.8886    5.5500   -0.5617 H   0  0  0  0  0  0  0  0  0  0  0  0
    2.4980    4.5810   -0.9256 H   0  0  0  0  0  0  0  0  0  0  0  0
    4.1184    3.8311   -0.8508 H   0  0  0  0  0  0  0  0  0  0  0  0
    0.1791   -0.8942    1.9796 H   0  0  0  0  0  0  0  0  0  0  0  0
   -0.9291   -0.9150   -0.3618 H   0  0  0  0  0  0  0  0  0  0  0  0
    0.3967   -2.0922   -0.3330 H   0  0  0  0  0  0  0  0  0  0  0  0
    0.2973   -0.9386   -1.6543 H   0  0  0  0  0  0  0  0  0  0  0  0
    1.2785    1.3453   -1.2970 H   0  0  0  0  0  0  0  0  0  0  0  0
  1  2  1  0  0  0  0
  1 21  1  0  0  0  0
  1 22  1  0  0  0  0
  1 23  1  0  0  0  0
  2  3  2  0  0  0  0
  2 20  1  0  0  0  0
  3  4  1  0  0  0  0
  3  5  1  0  0  0  0
  4 24  1  0  0  0  0
  4 25  1  0  0  0  0
  4 26  1  0  0  0  0
  5  6  1  0  0  0  0
  5 16  2  0  0  0  0
  6  7  1  0  0  0  0
  6 27  1  0  0  0  0
  6 28  1  0  0  0  0
  7  8  1  0  0  0  0
  7 15  1  0  0  0  0
  7 29  1  0  0  0  0
  8  9  1  0  0  0  0
  8 30  1  0  0  0  0
  8 31  1  0  0  0  0
  9 10  1  0  0  0  0
  9 32  1  0  0  0  0
  9 33  1  0  0  0  0
 10 11  1  0  0  0  0
 10 34  1  0  0  0  0
 10 35  1  0  0  0  0
 11 12  1  0  0  0  0
 11 13  2  0  0  0  0
 12 36  1  0  0  0  0
 12 37  1  0  0  0  0
 12 38  1  0  0  0  0
 13 14  1  0  0  0  0
 13 15  1  0  0  0  0
 14 39  1  0  0  0  0
 14 40  1  0  0  0  0
 14 41  1  0  0  0  0
 15 20  2  0  0  0  0
 16 17  1  0  0  0  0
 16 42  1  0  0  0  0
 17 18  1  0  0  0  0
 17 19  2  0  0  0  0
 18 43  1  0  0  0  0
 18 44  1  0  0  0  0
 18 45  1  0  0  0  0
 19 20  1  0  0  0  0
 19 46  1  0  0  0  0
M  END
$$$$
