
 OpenBabel04232216593D

232231  0  0  0  0  0  0  0  0999 V2000
    2.7645    0.4994   -1.0507 O   0  0  0  0  0  0  0  0  0  0  0  0
    2.1793    0.0829   -0.0528 C   0  0  0  0  0  0  0  0  0  0  0  0
    0.6669    0.0516    0.0369 C   0  0  0  0  0  0  0  0  0  0  0  0
    0.0310    0.5875   -1.2333 C   0  0  0  0  0  0  0  0  0  0  0  0
    2.9376   -0.4288    1.1585 C   0  0  0  0  0  0  0  0  0  0  0  0
    4.4425   -0.3414    0.9356 C   0  0  0  0  0  0  0  0  0  0  0  0
    5.2043   -0.8519    2.1439 C   0  0  0  0  0  0  0  0  0  0  0  0
    6.6977   -0.7482    1.8871 C   0  0  0  0  0  0  0  0  0  0  0  0
    7.4642   -1.2587    3.0905 C   0  0  0  0  0  0  0  0  0  0  0  0
    8.9562   -1.1555    2.8350 C   0  0  0  0  0  0  0  0  0  0  0  0
    9.7189   -1.6692    4.0407 C   0  0  0  0  0  0  0  0  0  0  0  0
   11.2105   -1.5653    3.7885 C   0  0  0  0  0  0  0  0  0  0  0  0
   11.9726   -2.0810    4.9939 C   0  0  0  0  0  0  0  0  0  0  0  0
   13.4644   -1.9790    4.7412 C   0  0  0  0  0  0  0  0  0  0  0  0
   14.2267   -2.4930    5.9473 C   0  0  0  0  0  0  0  0  0  0  0  0
   15.7188   -2.3909    5.6945 C   0  0  0  0  0  0  0  0  0  0  0  0
   16.4812   -2.9069    6.9004 C   0  0  0  0  0  0  0  0  0  0  0  0
   17.9733   -2.8028    6.6478 C   0  0  0  0  0  0  0  0  0  0  0  0
   18.7353   -3.3204    7.8527 C   0  0  0  0  0  0  0  0  0  0  0  0
   20.2275   -3.2144    7.6013 C   0  0  0  0  0  0  0  0  0  0  0  0
   20.9889   -3.7309    8.8079 C   0  0  0  0  0  0  0  0  0  0  0  0
   22.4814   -3.6228    8.5559 C   0  0  0  0  0  0  0  0  0  0  0  0
   23.2431   -4.1405    9.7617 C   0  0  0  0  0  0  0  0  0  0  0  0
   24.7359   -4.0343    9.5098 C   0  0  0  0  0  0  0  0  0  0  0  0
   25.4986   -4.5537   10.7141 C   0  0  0  0  0  0  0  0  0  0  0  0
   26.9913   -4.4473   10.4620 C   0  0  0  0  0  0  0  0  0  0  0  0
   27.7528   -4.9694   11.6665 C   0  0  0  0  0  0  0  0  0  0  0  0
   29.2455   -4.8640   11.4132 C   0  0  0  0  0  0  0  0  0  0  0  0
   30.0068   -5.3854   12.6186 C   0  0  0  0  0  0  0  0  0  0  0  0
   31.4998   -5.2789   12.3651 C   0  0  0  0  0  0  0  0  0  0  0  0
   32.2616   -5.7994   13.5700 C   0  0  0  0  0  0  0  0  0  0  0  0
   33.7538   -5.6937   13.3185 C   0  0  0  0  0  0  0  0  0  0  0  0
   34.5161   -6.2133   14.5227 C   0  0  0  0  0  0  0  0  0  0  0  0
   36.0088   -6.1064   14.2702 C   0  0  0  0  0  0  0  0  0  0  0  0
   36.7702   -6.6244   15.4767 C   0  0  0  0  0  0  0  0  0  0  0  0
   38.2628   -6.5171   15.2250 C   0  0  0  0  0  0  0  0  0  0  0  0
   39.0249   -7.0330   16.4310 C   0  0  0  0  0  0  0  0  0  0  0  0
   40.5173   -6.9265   16.1792 C   0  0  0  0  0  0  0  0  0  0  0  0
   41.2793   -7.4446   17.3848 C   0  0  0  0  0  0  0  0  0  0  0  0
   42.7718   -7.3374   17.1329 C   0  0  0  0  0  0  0  0  0  0  0  0
   43.5334   -7.8560   18.3391 C   0  0  0  0  0  0  0  0  0  0  0  0
   45.0265   -7.7471   18.0869 C   0  0  0  0  0  0  0  0  0  0  0  0
   45.7875   -8.2655   19.2942 C   0  0  0  0  0  0  0  0  0  0  0  0
   47.2806   -8.1562   19.0417 C   0  0  0  0  0  0  0  0  0  0  0  0
   48.0422   -8.6744   20.2481 C   0  0  0  0  0  0  0  0  0  0  0  0
   49.5346   -8.5668   19.9969 C   0  0  0  0  0  0  0  0  0  0  0  0
   50.2969   -9.0844   21.2020 C   0  0  0  0  0  0  0  0  0  0  0  0
   51.7894   -8.9763   20.9508 C   0  0  0  0  0  0  0  0  0  0  0  0
   52.5507   -9.4967   22.1564 C   0  0  0  0  0  0  0  0  0  0  0  0
   54.0435   -9.3903   21.9034 C   0  0  0  0  0  0  0  0  0  0  0  0
   54.8058   -9.9122   23.1069 C   0  0  0  0  0  0  0  0  0  0  0  0
   56.2983   -9.8066   22.8544 C   0  0  0  0  0  0  0  0  0  0  0  0
   57.0597  -10.3269   24.0600 C   0  0  0  0  0  0  0  0  0  0  0  0
   58.5522  -10.2221   23.8073 C   0  0  0  0  0  0  0  0  0  0  0  0
   59.3144  -10.7406   25.0123 C   0  0  0  0  0  0  0  0  0  0  0  0
   60.8070  -10.6362   24.7590 C   0  0  0  0  0  0  0  0  0  0  0  0
   61.5687  -11.1550   25.9645 C   0  0  0  0  0  0  0  0  0  0  0  0
   63.0613  -11.0505   25.7117 C   0  0  0  0  0  0  0  0  0  0  0  0
   63.8224  -11.5711   26.9171 C   0  0  0  0  0  0  0  0  0  0  0  0
   65.3150  -11.4664   26.6623 C   0  0  0  0  0  0  0  0  0  0  0  0
   66.0763  -11.9871   27.8680 C   0  0  0  0  0  0  0  0  0  0  0  0
   67.5699  -11.8826   27.6139 C   0  0  0  0  0  0  0  0  0  0  0  0
   68.3323  -12.4029   28.8197 C   0  0  0  0  0  0  0  0  0  0  0  0
   69.8248  -12.2987   28.5674 C   0  0  0  0  0  0  0  0  0  0  0  0
   70.5869  -12.8182   29.7723 C   0  0  0  0  0  0  0  0  0  0  0  0
   72.0789  -12.7135   29.5185 C   0  0  0  0  0  0  0  0  0  0  0  0
   72.8409  -13.2316   30.7239 C   0  0  0  0  0  0  0  0  0  0  0  0
   74.3330  -13.1279   30.4722 C   0  0  0  0  0  0  0  0  0  0  0  0
   75.0955  -13.6454   31.6765 C   0  0  0  0  0  0  0  0  0  0  0  0
   76.5876  -13.5416   31.4248 C   0  0  0  0  0  0  0  0  0  0  0  0
   77.3505  -14.0592   32.6294 C   0  0  0  0  0  0  0  0  0  0  0  0
   78.8430  -13.9556   32.3780 C   0  0  0  0  0  0  0  0  0  0  0  0
   79.6065  -14.4715   33.5836 C   0  0  0  0  0  0  0  0  0  0  0  0
   81.1004  -14.3685   33.3339 C   0  0  0  0  0  0  0  0  0  0  0  0
   81.8659  -14.8847   34.5403 C   0  0  0  0  0  0  0  0  0  0  0  0
   83.3628  -14.7807   34.2931 C   0  0  0  0  0  0  0  0  0  0  0  0
   84.1385  -15.2973   35.4953 C   0  0  0  0  0  0  0  0  0  0  0  0
   85.6315  -15.1921   35.2455 C   0  0  0  0  0  0  0  0  0  0  0  0
    0.3441    0.6610    0.8911 H   0  0  0  0  0  0  0  0  0  0  0  0
    0.3372   -0.9825    0.2012 H   0  0  0  0  0  0  0  0  0  0  0  0
    0.3430    1.6224   -1.4166 H   0  0  0  0  0  0  0  0  0  0  0  0
   -1.0603    0.5645   -1.1675 H   0  0  0  0  0  0  0  0  0  0  0  0
    0.3361   -0.0086   -2.1012 H   0  0  0  0  0  0  0  0  0  0  0  0
    2.6508   -1.4715    1.3404 H   0  0  0  0  0  0  0  0  0  0  0  0
    2.6576    0.1737    2.0311 H   0  0  0  0  0  0  0  0  0  0  0  0
    4.7333    0.6981    0.7316 H   0  0  0  0  0  0  0  0  0  0  0  0
    4.7266   -0.9259    0.0499 H   0  0  0  0  0  0  0  0  0  0  0  0
    4.9317   -1.8950    2.3464 H   0  0  0  0  0  0  0  0  0  0  0  0
    4.9366   -0.2659    3.0318 H   0  0  0  0  0  0  0  0  0  0  0  0
    6.9723    0.2946    1.6847 H   0  0  0  0  0  0  0  0  0  0  0  0
    6.9672   -1.3318    0.9980 H   0  0  0  0  0  0  0  0  0  0  0  0
    7.1916   -2.3021    3.2924 H   0  0  0  0  0  0  0  0  0  0  0  0
    7.1967   -0.6745    3.9797 H   0  0  0  0  0  0  0  0  0  0  0  0
    9.2306   -0.1124    2.6347 H   0  0  0  0  0  0  0  0  0  0  0  0
    9.2251   -1.7385    1.9455 H   0  0  0  0  0  0  0  0  0  0  0  0
    9.4448   -2.7126    4.2397 H   0  0  0  0  0  0  0  0  0  0  0  0
    9.4484   -1.0870    4.9303 H   0  0  0  0  0  0  0  0  0  0  0  0
   11.4846   -0.5217    3.5908 H   0  0  0  0  0  0  0  0  0  0  0  0
   11.4807   -2.1464    2.8982 H   0  0  0  0  0  0  0  0  0  0  0  0
   11.6972   -3.1242    5.1924 H   0  0  0  0  0  0  0  0  0  0  0  0
   11.7030   -1.4990    5.8839 H   0  0  0  0  0  0  0  0  0  0  0  0
   13.7395   -0.9360    4.5414 H   0  0  0  0  0  0  0  0  0  0  0  0
   13.7338   -2.5621    3.8520 H   0  0  0  0  0  0  0  0  0  0  0  0
   13.9515   -3.5359    6.1471 H   0  0  0  0  0  0  0  0  0  0  0  0
   13.9572   -1.9098    6.8365 H   0  0  0  0  0  0  0  0  0  0  0  0
   15.9938   -1.3476    5.4960 H   0  0  0  0  0  0  0  0  0  0  0  0
   15.9880   -2.9729    4.8045 H   0  0  0  0  0  0  0  0  0  0  0  0
   16.2066   -3.9503    7.0975 H   0  0  0  0  0  0  0  0  0  0  0  0
   16.2107   -2.3256    7.7903 H   0  0  0  0  0  0  0  0  0  0  0  0
   18.2473   -1.7589    6.4517 H   0  0  0  0  0  0  0  0  0  0  0  0
   18.2432   -3.3827    5.7567 H   0  0  0  0  0  0  0  0  0  0  0  0
   18.4619   -4.3647    8.0480 H   0  0  0  0  0  0  0  0  0  0  0  0
   18.4641   -2.7413    8.7440 H   0  0  0  0  0  0  0  0  0  0  0  0
   20.5006   -2.1703    7.4046 H   0  0  0  0  0  0  0  0  0  0  0  0
   20.4988   -3.7947    6.7106 H   0  0  0  0  0  0  0  0  0  0  0  0
   20.7173   -4.7751    9.0028 H   0  0  0  0  0  0  0  0  0  0  0  0
   20.7172   -3.1513    9.6981 H   0  0  0  0  0  0  0  0  0  0  0  0
   22.7541   -2.5780    8.3617 H   0  0  0  0  0  0  0  0  0  0  0  0
   22.7541   -4.2009    7.6643 H   0  0  0  0  0  0  0  0  0  0  0  0
   22.9707   -5.1848    9.9564 H   0  0  0  0  0  0  0  0  0  0  0  0
   22.9726   -3.5615   10.6528 H   0  0  0  0  0  0  0  0  0  0  0  0
   25.0097   -2.9899    9.3157 H   0  0  0  0  0  0  0  0  0  0  0  0
   25.0072   -4.6124    8.6175 H   0  0  0  0  0  0  0  0  0  0  0  0
   25.2249   -5.5986   10.9075 H   0  0  0  0  0  0  0  0  0  0  0  0
   25.2274   -3.9763   11.6063 H   0  0  0  0  0  0  0  0  0  0  0  0
   27.2646   -3.4033   10.2695 H   0  0  0  0  0  0  0  0  0  0  0  0
   27.2614   -5.0250    9.5693 H   0  0  0  0  0  0  0  0  0  0  0  0
   27.4790   -6.0145   11.8580 H   0  0  0  0  0  0  0  0  0  0  0  0
   27.4819   -4.3932   12.5593 H   0  0  0  0  0  0  0  0  0  0  0  0
   29.5189   -3.8193   11.2216 H   0  0  0  0  0  0  0  0  0  0  0  0
   29.5160   -5.4406   10.5205 H   0  0  0  0  0  0  0  0  0  0  0  0
   29.7334   -6.4302   12.8101 H   0  0  0  0  0  0  0  0  0  0  0  0
   29.7361   -4.8088   13.5111 H   0  0  0  0  0  0  0  0  0  0  0  0
   31.7732   -4.2348   12.1720 H   0  0  0  0  0  0  0  0  0  0  0  0
   31.7704   -5.8573   11.4734 H   0  0  0  0  0  0  0  0  0  0  0  0
   31.9879   -6.8439   13.7639 H   0  0  0  0  0  0  0  0  0  0  0  0
   31.9907   -5.2214   14.4623 H   0  0  0  0  0  0  0  0  0  0  0  0
   34.0273   -4.6489   13.1249 H   0  0  0  0  0  0  0  0  0  0  0  0
   34.0248   -6.2712   12.4263 H   0  0  0  0  0  0  0  0  0  0  0  0
   34.2425   -7.2577   14.7167 H   0  0  0  0  0  0  0  0  0  0  0  0
   34.2450   -5.6351   15.4149 H   0  0  0  0  0  0  0  0  0  0  0  0
   36.2816   -5.0625   14.0758 H   0  0  0  0  0  0  0  0  0  0  0  0
   36.2796   -6.6860   13.3796 H   0  0  0  0  0  0  0  0  0  0  0  0
   36.4981   -7.6694   15.6706 H   0  0  0  0  0  0  0  0  0  0  0  0
   36.4981   -6.0466   16.3682 H   0  0  0  0  0  0  0  0  0  0  0  0
   38.5348   -5.4726   15.0298 H   0  0  0  0  0  0  0  0  0  0  0  0
   38.5350   -7.0964   14.3344 H   0  0  0  0  0  0  0  0  0  0  0  0
   38.7518   -8.0772   16.6278 H   0  0  0  0  0  0  0  0  0  0  0  0
   38.7534   -6.4529   17.3218 H   0  0  0  0  0  0  0  0  0  0  0  0
   40.7903   -5.8826   15.9843 H   0  0  0  0  0  0  0  0  0  0  0  0
   40.7884   -7.5061   15.2884 H   0  0  0  0  0  0  0  0  0  0  0  0
   41.0069   -8.4895   17.5790 H   0  0  0  0  0  0  0  0  0  0  0  0
   41.0070   -6.8667   18.2766 H   0  0  0  0  0  0  0  0  0  0  0  0
   43.0438   -6.2924   16.9395 H   0  0  0  0  0  0  0  0  0  0  0  0
   43.0438   -7.9152   16.2418 H   0  0  0  0  0  0  0  0  0  0  0  0
   43.2611   -8.9001   18.5337 H   0  0  0  0  0  0  0  0  0  0  0  0
   43.2614   -7.2769   19.2306 H   0  0  0  0  0  0  0  0  0  0  0  0
   45.2983   -6.7022   17.8935 H   0  0  0  0  0  0  0  0  0  0  0  0
   45.2984   -8.3252   17.1959 H   0  0  0  0  0  0  0  0  0  0  0  0
   45.5156   -9.3101   19.4880 H   0  0  0  0  0  0  0  0  0  0  0  0
   45.5155   -7.6870   20.1853 H   0  0  0  0  0  0  0  0  0  0  0  0
   47.5527   -7.1121   18.8476 H   0  0  0  0  0  0  0  0  0  0  0  0
   47.5526   -8.7352   18.1505 H   0  0  0  0  0  0  0  0  0  0  0  0
   47.7702   -9.7197   20.4417 H   0  0  0  0  0  0  0  0  0  0  0  0
   47.7700   -8.0969   21.1395 H   0  0  0  0  0  0  0  0  0  0  0  0
   49.8070   -7.5223   19.8023 H   0  0  0  0  0  0  0  0  0  0  0  0
   49.8069   -9.1453   19.1051 H   0  0  0  0  0  0  0  0  0  0  0  0
   50.0246  -10.1296   21.3959 H   0  0  0  0  0  0  0  0  0  0  0  0
   50.0246   -8.5069   22.0936 H   0  0  0  0  0  0  0  0  0  0  0  0
   52.0618   -7.9320   20.7576 H   0  0  0  0  0  0  0  0  0  0  0  0
   52.0611   -9.5542   20.0585 H   0  0  0  0  0  0  0  0  0  0  0  0
   52.2776  -10.5416   22.3490 H   0  0  0  0  0  0  0  0  0  0  0  0
   52.2800   -8.9192   23.0479 H   0  0  0  0  0  0  0  0  0  0  0  0
   54.3173   -8.3460   21.7109 H   0  0  0  0  0  0  0  0  0  0  0  0
   54.3142   -9.9677   21.0106 H   0  0  0  0  0  0  0  0  0  0  0  0
   54.5319  -10.9572   23.2994 H   0  0  0  0  0  0  0  0  0  0  0  0
   54.5349   -9.3357   24.0002 H   0  0  0  0  0  0  0  0  0  0  0  0
   56.5716   -8.7621   22.6615 H   0  0  0  0  0  0  0  0  0  0  0  0
   56.5688  -10.3844   21.9628 H   0  0  0  0  0  0  0  0  0  0  0  0
   56.7854  -11.3706   24.2545 H   0  0  0  0  0  0  0  0  0  0  0  0
   56.7900   -9.7475   24.9515 H   0  0  0  0  0  0  0  0  0  0  0  0
   58.8268   -9.1781   23.6112 H   0  0  0  0  0  0  0  0  0  0  0  0
   58.8223  -10.8020   22.9161 H   0  0  0  0  0  0  0  0  0  0  0  0
   59.0399  -11.7841   25.2083 H   0  0  0  0  0  0  0  0  0  0  0  0
   59.0445  -10.1601   25.9033 H   0  0  0  0  0  0  0  0  0  0  0  0
   61.0812   -9.5919   24.5651 H   0  0  0  0  0  0  0  0  0  0  0  0
   61.0768  -11.2148   23.8676 H   0  0  0  0  0  0  0  0  0  0  0  0
   61.2943  -12.1995   26.1587 H   0  0  0  0  0  0  0  0  0  0  0  0
   61.2988  -10.5767   26.8563 H   0  0  0  0  0  0  0  0  0  0  0  0
   63.3360  -10.0071   25.5167 H   0  0  0  0  0  0  0  0  0  0  0  0
   63.3310  -11.6303   24.8198 H   0  0  0  0  0  0  0  0  0  0  0  0
   63.5485  -12.6154   27.1108 H   0  0  0  0  0  0  0  0  0  0  0  0
   63.5532  -10.9925   27.8084 H   0  0  0  0  0  0  0  0  0  0  0  0
   65.5903  -10.4227   26.4684 H   0  0  0  0  0  0  0  0  0  0  0  0
   65.5855  -12.0458   25.7712 H   0  0  0  0  0  0  0  0  0  0  0  0
   65.8027  -13.0311   28.0628 H   0  0  0  0  0  0  0  0  0  0  0  0
   65.8076  -11.4080   28.7600 H   0  0  0  0  0  0  0  0  0  0  0  0
   67.8446  -10.8385   27.4205 H   0  0  0  0  0  0  0  0  0  0  0  0
   67.8400  -12.4614   26.7229 H   0  0  0  0  0  0  0  0  0  0  0  0
   68.0573  -13.4467   29.0144 H   0  0  0  0  0  0  0  0  0  0  0  0
   68.0622  -11.8236   29.7115 H   0  0  0  0  0  0  0  0  0  0  0  0
   70.0989  -11.2543   28.3726 H   0  0  0  0  0  0  0  0  0  0  0  0
   70.0943  -12.8772   27.6752 H   0  0  0  0  0  0  0  0  0  0  0  0
   70.3119  -13.8621   29.9663 H   0  0  0  0  0  0  0  0  0  0  0  0
   70.3165  -12.2391   30.6635 H   0  0  0  0  0  0  0  0  0  0  0  0
   72.3532  -11.6699   29.3229 H   0  0  0  0  0  0  0  0  0  0  0  0
   72.3487  -13.2938   28.6278 H   0  0  0  0  0  0  0  0  0  0  0  0
   72.5664  -14.2756   30.9201 H   0  0  0  0  0  0  0  0  0  0  0  0
   72.5707  -12.6517   31.6151 H   0  0  0  0  0  0  0  0  0  0  0  0
   74.6074  -12.0839   30.2758 H   0  0  0  0  0  0  0  0  0  0  0  0
   74.6031  -13.7077   29.5808 H   0  0  0  0  0  0  0  0  0  0  0  0
   74.8209  -14.6892   31.8727 H   0  0  0  0  0  0  0  0  0  0  0  0
   74.8253  -13.0655   32.5677 H   0  0  0  0  0  0  0  0  0  0  0  0
   76.8619  -12.4977   31.2285 H   0  0  0  0  0  0  0  0  0  0  0  0
   76.8576  -14.1214   30.5335 H   0  0  0  0  0  0  0  0  0  0  0  0
   77.0757  -15.1030   32.8255 H   0  0  0  0  0  0  0  0  0  0  0  0
   77.0799  -13.4792   33.5203 H   0  0  0  0  0  0  0  0  0  0  0  0
   79.1168  -12.9119   32.1802 H   0  0  0  0  0  0  0  0  0  0  0  0
   79.1128  -14.5365   31.4874 H   0  0  0  0  0  0  0  0  0  0  0  0
   79.3313  -15.5149   33.7808 H   0  0  0  0  0  0  0  0  0  0  0  0
   79.3351  -13.8903   34.4735 H   0  0  0  0  0  0  0  0  0  0  0  0
   81.3732  -13.3246   33.1354 H   0  0  0  0  0  0  0  0  0  0  0  0
   81.3694  -14.9490   32.4428 H   0  0  0  0  0  0  0  0  0  0  0  0
   81.5903  -15.9283   34.7358 H   0  0  0  0  0  0  0  0  0  0  0  0
   81.5923  -14.3041   35.4298 H   0  0  0  0  0  0  0  0  0  0  0  0
   83.6312  -13.7357   34.0948 H   0  0  0  0  0  0  0  0  0  0  0  0
   83.6291  -15.3580   33.3991 H   0  0  0  0  0  0  0  0  0  0  0  0
   83.8708  -16.3420   35.6920 H   0  0  0  0  0  0  0  0  0  0  0  0
   83.8729  -14.7190   36.3880 H   0  0  0  0  0  0  0  0  0  0  0  0
   85.9180  -15.7819   34.3693 H   0  0  0  0  0  0  0  0  0  0  0  0
   86.1863  -15.5637   36.1101 H   0  0  0  0  0  0  0  0  0  0  0  0
   85.9202  -14.1514   35.0685 H   0  0  0  0  0  0  0  0  0  0  0  0
  1  2  2  0  0  0  0
  2  3  1  0  0  0  0
  2  5  1  0  0  0  0
  3  4  1  0  0  0  0
  3 79  1  0  0  0  0
  3 80  1  0  0  0  0
  4 81  1  0  0  0  0
  4 82  1  0  0  0  0
  4 83  1  0  0  0  0
  5  6  1  0  0  0  0
  5 84  1  0  0  0  0
  5 85  1  0  0  0  0
  6  7  1  0  0  0  0
  6 86  1  0  0  0  0
  6 87  1  0  0  0  0
  7  8  1  0  0  0  0
  7 88  1  0  0  0  0
  7 89  1  0  0  0  0
  8  9  1  0  0  0  0
  8 90  1  0  0  0  0
  8 91  1  0  0  0  0
  9 10  1  0  0  0  0
  9 92  1  0  0  0  0
  9 93  1  0  0  0  0
 10 11  1  0  0  0  0
 10 94  1  0  0  0  0
 10 95  1  0  0  0  0
 11 12  1  0  0  0  0
 11 96  1  0  0  0  0
 11 97  1  0  0  0  0
 12 13  1  0  0  0  0
 12 98  1  0  0  0  0
 12 99  1  0  0  0  0
 13 14  1  0  0  0  0
 13100  1  0  0  0  0
 13101  1  0  0  0  0
 14 15  1  0  0  0  0
 14102  1  0  0  0  0
 14103  1  0  0  0  0
 15 16  1  0  0  0  0
 15104  1  0  0  0  0
 15105  1  0  0  0  0
 16 17  1  0  0  0  0
 16106  1  0  0  0  0
 16107  1  0  0  0  0
 17 18  1  0  0  0  0
 17108  1  0  0  0  0
 17109  1  0  0  0  0
 18 19  1  0  0  0  0
 18110  1  0  0  0  0
 18111  1  0  0  0  0
 19 20  1  0  0  0  0
 19112  1  0  0  0  0
 19113  1  0  0  0  0
 20 21  1  0  0  0  0
 20114  1  0  0  0  0
 20115  1  0  0  0  0
 21 22  1  0  0  0  0
 21116  1  0  0  0  0
 21117  1  0  0  0  0
 22 23  1  0  0  0  0
 22118  1  0  0  0  0
 22119  1  0  0  0  0
 23 24  1  0  0  0  0
 23120  1  0  0  0  0
 23121  1  0  0  0  0
 24 25  1  0  0  0  0
 24122  1  0  0  0  0
 24123  1  0  0  0  0
 25 26  1  0  0  0  0
 25124  1  0  0  0  0
 25125  1  0  0  0  0
 26 27  1  0  0  0  0
 26126  1  0  0  0  0
 26127  1  0  0  0  0
 27 28  1  0  0  0  0
 27128  1  0  0  0  0
 27129  1  0  0  0  0
 28 29  1  0  0  0  0
 28130  1  0  0  0  0
 28131  1  0  0  0  0
 29 30  1  0  0  0  0
 29132  1  0  0  0  0
 29133  1  0  0  0  0
 30 31  1  0  0  0  0
 30134  1  0  0  0  0
 30135  1  0  0  0  0
 31 32  1  0  0  0  0
 31136  1  0  0  0  0
 31137  1  0  0  0  0
 32 33  1  0  0  0  0
 32138  1  0  0  0  0
 32139  1  0  0  0  0
 33 34  1  0  0  0  0
 33140  1  0  0  0  0
 33141  1  0  0  0  0
 34 35  1  0  0  0  0
 34142  1  0  0  0  0
 34143  1  0  0  0  0
 35 36  1  0  0  0  0
 35144  1  0  0  0  0
 35145  1  0  0  0  0
 36 37  1  0  0  0  0
 36146  1  0  0  0  0
 36147  1  0  0  0  0
 37 38  1  0  0  0  0
 37148  1  0  0  0  0
 37149  1  0  0  0  0
 38 39  1  0  0  0  0
 38150  1  0  0  0  0
 38151  1  0  0  0  0
 39 40  1  0  0  0  0
 39152  1  0  0  0  0
 39153  1  0  0  0  0
 40 41  1  0  0  0  0
 40154  1  0  0  0  0
 40155  1  0  0  0  0
 41 42  1  0  0  0  0
 41156  1  0  0  0  0
 41157  1  0  0  0  0
 42 43  1  0  0  0  0
 42158  1  0  0  0  0
 42159  1  0  0  0  0
 43 44  1  0  0  0  0
 43160  1  0  0  0  0
 43161  1  0  0  0  0
 44 45  1  0  0  0  0
 44162  1  0  0  0  0
 44163  1  0  0  0  0
 45 46  1  0  0  0  0
 45164  1  0  0  0  0
 45165  1  0  0  0  0
 46 47  1  0  0  0  0
 46166  1  0  0  0  0
 46167  1  0  0  0  0
 47 48  1  0  0  0  0
 47168  1  0  0  0  0
 47169  1  0  0  0  0
 48 49  1  0  0  0  0
 48170  1  0  0  0  0
 48171  1  0  0  0  0
 49 50  1  0  0  0  0
 49172  1  0  0  0  0
 49173  1  0  0  0  0
 50 51  1  0  0  0  0
 50174  1  0  0  0  0
 50175  1  0  0  0  0
 51 52  1  0  0  0  0
 51176  1  0  0  0  0
 51177  1  0  0  0  0
 52 53  1  0  0  0  0
 52178  1  0  0  0  0
 52179  1  0  0  0  0
 53 54  1  0  0  0  0
 53180  1  0  0  0  0
 53181  1  0  0  0  0
 54 55  1  0  0  0  0
 54182  1  0  0  0  0
 54183  1  0  0  0  0
 55 56  1  0  0  0  0
 55184  1  0  0  0  0
 55185  1  0  0  0  0
 56 57  1  0  0  0  0
 56186  1  0  0  0  0
 56187  1  0  0  0  0
 57 58  1  0  0  0  0
 57188  1  0  0  0  0
 57189  1  0  0  0  0
 58 59  1  0  0  0  0
 58190  1  0  0  0  0
 58191  1  0  0  0  0
 59 60  1  0  0  0  0
 59192  1  0  0  0  0
 59193  1  0  0  0  0
 60 61  1  0  0  0  0
 60194  1  0  0  0  0
 60195  1  0  0  0  0
 61 62  1  0  0  0  0
 61196  1  0  0  0  0
 61197  1  0  0  0  0
 62 63  1  0  0  0  0
 62198  1  0  0  0  0
 62199  1  0  0  0  0
 63 64  1  0  0  0  0
 63200  1  0  0  0  0
 63201  1  0  0  0  0
 64 65  1  0  0  0  0
 64202  1  0  0  0  0
 64203  1  0  0  0  0
 65 66  1  0  0  0  0
 65204  1  0  0  0  0
 65205  1  0  0  0  0
 66 67  1  0  0  0  0
 66206  1  0  0  0  0
 66207  1  0  0  0  0
 67 68  1  0  0  0  0
 67208  1  0  0  0  0
 67209  1  0  0  0  0
 68 69  1  0  0  0  0
 68210  1  0  0  0  0
 68211  1  0  0  0  0
 69 70  1  0  0  0  0
 69212  1  0  0  0  0
 69213  1  0  0  0  0
 70 71  1  0  0  0  0
 70214  1  0  0  0  0
 70215  1  0  0  0  0
 71 72  1  0  0  0  0
 71216  1  0  0  0  0
 71217  1  0  0  0  0
 72 73  1  0  0  0  0
 72218  1  0  0  0  0
 72219  1  0  0  0  0
 73 74  1  0  0  0  0
 73220  1  0  0  0  0
 73221  1  0  0  0  0
 74 75  1  0  0  0  0
 74222  1  0  0  0  0
 74223  1  0  0  0  0
 75 76  1  0  0  0  0
 75224  1  0  0  0  0
 75225  1  0  0  0  0
 76 77  1  0  0  0  0
 76226  1  0  0  0  0
 76227  1  0  0  0  0
 77 78  1  0  0  0  0
 77228  1  0  0  0  0
 77229  1  0  0  0  0
 78230  1  0  0  0  0
 78231  1  0  0  0  0
 78232  1  0  0  0  0
M  END
$$$$
