
 OpenBabel04232216543D

214213  0  0  0  0  0  0  0  0999 V2000
    0.9995   -0.1362   -0.1240 C   0  0  0  0  0  0  0  0  0  0  0  0
    2.5126   -0.1394   -0.1169 C   0  0  0  0  0  0  0  0  0  0  0  0
    3.0352   -0.3741    1.2944 C   0  0  0  0  0  0  0  0  0  0  0  0
    4.5625   -0.3781    1.3186 C   0  0  0  0  0  0  0  0  0  0  0  0
    5.0468   -0.6049    2.6822 N   0  0  0  0  0  0  0  0  0  0  0  0
    6.4520   -0.6001    2.6536 N   0  0  0  0  0  0  0  0  0  0  0  0
    6.9294   -0.8201    3.9648 N   0  0  0  0  0  0  0  0  0  0  0  0
    8.3363   -0.8204    3.9780 N   0  0  0  0  0  0  0  0  0  0  0  0
    8.7989   -1.0401    5.2868 N   0  0  0  0  0  0  0  0  0  0  0  0
   10.2263   -1.0390    5.3031 N   0  0  0  0  0  0  0  0  0  0  0  0
   10.7155   -1.2574    6.6168 N   0  0  0  0  0  0  0  0  0  0  0  0
   12.1307   -1.2569    6.6251 N   0  0  0  0  0  0  0  0  0  0  0  0
   12.5982   -1.4767    7.9348 N   0  0  0  0  0  0  0  0  0  0  0  0
   14.0168   -1.4744    7.9439 N   0  0  0  0  0  0  0  0  0  0  0  0
   14.5099   -1.6954    9.2615 N   0  0  0  0  0  0  0  0  0  0  0  0
   15.9200   -1.6945    9.2676 N   0  0  0  0  0  0  0  0  0  0  0  0
   16.3810   -1.9117   10.5740 N   0  0  0  0  0  0  0  0  0  0  0  0
   17.7986   -1.9091   10.5813 N   0  0  0  0  0  0  0  0  0  0  0  0
   18.2844   -2.1290   11.8922 N   0  0  0  0  0  0  0  0  0  0  0  0
   19.6962   -2.1295   11.9069 N   0  0  0  0  0  0  0  0  0  0  0  0
   20.1745   -2.3483   13.2224 N   0  0  0  0  0  0  0  0  0  0  0  0
   21.5841   -2.3482   13.2223 N   0  0  0  0  0  0  0  0  0  0  0  0
   22.0716   -2.5695   14.5413 N   0  0  0  0  0  0  0  0  0  0  0  0
   23.4881   -2.5696   14.5536 N   0  0  0  0  0  0  0  0  0  0  0  0
   23.9684   -2.7897   15.8659 N   0  0  0  0  0  0  0  0  0  0  0  0
   25.3823   -2.7908   15.8720 N   0  0  0  0  0  0  0  0  0  0  0  0
   25.8504   -3.0106   17.1823 N   0  0  0  0  0  0  0  0  0  0  0  0
   27.2712   -3.0119   17.1905 N   0  0  0  0  0  0  0  0  0  0  0  0
   27.7576   -3.2327   18.5068 N   0  0  0  0  0  0  0  0  0  0  0  0
   29.1720   -3.2345   18.5174 N   0  0  0  0  0  0  0  0  0  0  0  0
   29.6477   -3.4541   19.8269 N   0  0  0  0  0  0  0  0  0  0  0  0
   31.0585   -3.4548   19.8310 N   0  0  0  0  0  0  0  0  0  0  0  0
   31.5306   -3.6742   21.1391 N   0  0  0  0  0  0  0  0  0  0  0  0
   32.9558   -3.6786   21.1539 N   0  0  0  0  0  0  0  0  0  0  0  0
   33.4224   -3.9012   22.4808 N   0  0  0  0  0  0  0  0  0  0  0  0
   34.8795   -3.8983   22.4636 C   0  0  0  0  0  0  0  0  0  0  0  0
   35.3991   -4.1367   23.8728 C   0  0  0  0  0  0  0  0  0  0  0  0
   36.9177   -4.1408   23.8848 C   0  0  0  0  0  0  0  0  0  0  0  0
   37.4325   -4.3806   25.2901 C   0  0  0  0  0  0  0  0  0  0  0  0
   38.9478   -4.3820   25.2984 C   0  0  0  0  0  0  0  0  0  0  0  0
   39.4601   -4.6238   26.7035 C   0  0  0  0  0  0  0  0  0  0  0  0
   40.9748   -4.6251   26.7110 C   0  0  0  0  0  0  0  0  0  0  0  0
   41.4869   -4.8668   28.1158 C   0  0  0  0  0  0  0  0  0  0  0  0
   43.0015   -4.8681   28.1233 C   0  0  0  0  0  0  0  0  0  0  0  0
   43.5135   -5.1098   29.5281 C   0  0  0  0  0  0  0  0  0  0  0  0
   45.0281   -5.1111   29.5356 C   0  0  0  0  0  0  0  0  0  0  0  0
   45.5402   -5.3528   30.9404 C   0  0  0  0  0  0  0  0  0  0  0  0
   47.0548   -5.3541   30.9479 C   0  0  0  0  0  0  0  0  0  0  0  0
   47.5669   -5.5959   32.3528 C   0  0  0  0  0  0  0  0  0  0  0  0
   49.0815   -5.5991   32.3599 C   0  0  0  0  0  0  0  0  0  0  0  0
   49.5935   -5.8409   33.7647 C   0  0  0  0  0  0  0  0  0  0  0  0
   51.1081   -5.8461   33.7716 C   0  0  0  0  0  0  0  0  0  0  0  0
   51.6202   -6.0898   35.1760 C   0  0  0  0  0  0  0  0  0  0  0  0
   53.1348   -6.0931   35.1832 C   0  0  0  0  0  0  0  0  0  0  0  0
   53.6468   -6.3348   36.5880 C   0  0  0  0  0  0  0  0  0  0  0  0
   55.1614   -6.3401   36.5948 C   0  0  0  0  0  0  0  0  0  0  0  0
   55.6735   -6.5838   37.9993 C   0  0  0  0  0  0  0  0  0  0  0  0
   57.1881   -6.5871   38.0065 C   0  0  0  0  0  0  0  0  0  0  0  0
   57.7001   -6.8308   39.4109 C   0  0  0  0  0  0  0  0  0  0  0  0
   59.2147   -6.8361   39.4178 C   0  0  0  0  0  0  0  0  0  0  0  0
   59.7268   -7.0798   40.8222 C   0  0  0  0  0  0  0  0  0  0  0  0
   61.2414   -7.0850   40.8291 C   0  0  0  0  0  0  0  0  0  0  0  0
   61.7534   -7.3287   42.2335 C   0  0  0  0  0  0  0  0  0  0  0  0
   63.2680   -7.3340   42.2404 C   0  0  0  0  0  0  0  0  0  0  0  0
   63.7801   -7.5777   43.6448 C   0  0  0  0  0  0  0  0  0  0  0  0
   65.2947   -7.5830   43.6517 C   0  0  0  0  0  0  0  0  0  0  0  0
   65.8067   -7.8267   45.0561 C   0  0  0  0  0  0  0  0  0  0  0  0
   67.3213   -7.8319   45.0630 C   0  0  0  0  0  0  0  0  0  0  0  0
   67.8334   -8.0756   46.4674 C   0  0  0  0  0  0  0  0  0  0  0  0
   69.3480   -8.0789   46.4746 C   0  0  0  0  0  0  0  0  0  0  0  0
   69.8600   -8.3226   47.8791 C   0  0  0  0  0  0  0  0  0  0  0  0
   71.3746   -8.3259   47.8862 C   0  0  0  0  0  0  0  0  0  0  0  0
   71.8867   -8.5696   49.2907 C   0  0  0  0  0  0  0  0  0  0  0  0
   73.4013   -8.5729   49.2979 C   0  0  0  0  0  0  0  0  0  0  0  0
   73.9133   -8.8166   50.7024 C   0  0  0  0  0  0  0  0  0  0  0  0
   75.4279   -8.8179   50.7099 C   0  0  0  0  0  0  0  0  0  0  0  0
   75.9400   -9.0616   52.1143 C   0  0  0  0  0  0  0  0  0  0  0  0
   77.4547   -9.0628   52.1214 C   0  0  0  0  0  0  0  0  0  0  0  0
   77.9668   -9.3085   53.5254 C   0  0  0  0  0  0  0  0  0  0  0  0
   79.4827   -9.3123   53.5356 C   0  0  0  0  0  0  0  0  0  0  0  0
   79.9904   -9.5574   54.9363 C   0  0  0  0  0  0  0  0  0  0  0  0
    0.6252    0.0321   -1.1364 H   0  0  0  0  0  0  0  0  0  0  0  0
    0.6200    0.6575    0.5264 H   0  0  0  0  0  0  0  0  0  0  0  0
    0.6177   -1.0963    0.2357 H   0  0  0  0  0  0  0  0  0  0  0  0
    2.8780    0.8216   -0.4933 H   0  0  0  0  0  0  0  0  0  0  0  0
    2.8756   -0.9285   -0.7833 H   0  0  0  0  0  0  0  0  0  0  0  0
    2.6530   -1.3344    1.6592 H   0  0  0  0  0  0  0  0  0  0  0  0
    2.6532    0.4162    1.9509 H   0  0  0  0  0  0  0  0  0  0  0  0
    4.9096    0.5886    0.9305 H   0  0  0  0  0  0  0  0  0  0  0  0
    4.9125   -1.1653    0.6379 H   0  0  0  0  0  0  0  0  0  0  0  0
    4.7003   -1.5056    3.0062 H   0  0  0  0  0  0  0  0  0  0  0  0
    6.7594    0.3091    2.2969 H   0  0  0  0  0  0  0  0  0  0  0  0
    6.5820   -1.7201    4.2981 H   0  0  0  0  0  0  0  0  0  0  0  0
    8.6828    0.0821    3.6663 H   0  0  0  0  0  0  0  0  0  0  0  0
    8.4415   -1.9412    5.6103 H   0  0  0  0  0  0  0  0  0  0  0  0
   10.5768   -0.1372    4.9686 H   0  0  0  0  0  0  0  0  0  0  0  0
   10.3924   -2.1572    6.9691 H   0  0  0  0  0  0  0  0  0  0  0  0
   12.4778   -0.3536    6.3054 H   0  0  0  0  0  0  0  0  0  0  0  0
   12.2785   -2.3803    8.2693 H   0  0  0  0  0  0  0  0  0  0  0  0
   14.3222   -0.5683    7.5822 H   0  0  0  0  0  0  0  0  0  0  0  0
   14.1761   -2.5966    9.6082 H   0  0  0  0  0  0  0  0  0  0  0  0
   16.2682   -0.7935    8.9446 H   0  0  0  0  0  0  0  0  0  0  0  0
   16.0319   -2.8051   10.9104 H   0  0  0  0  0  0  0  0  0  0  0  0
   18.1077   -1.0056   10.2139 H   0  0  0  0  0  0  0  0  0  0  0  0
   17.9362   -3.0251   12.2362 H   0  0  0  0  0  0  0  0  0  0  0  0
   20.0531   -1.2302   11.5886 H   0  0  0  0  0  0  0  0  0  0  0  0
   19.8445   -3.2508   13.5633 H   0  0  0  0  0  0  0  0  0  0  0  0
   21.9342   -1.4462   12.9019 H   0  0  0  0  0  0  0  0  0  0  0  0
   21.7417   -3.4715   14.8818 H   0  0  0  0  0  0  0  0  0  0  0  0
   23.8322   -1.6688   14.2286 H   0  0  0  0  0  0  0  0  0  0  0  0
   23.6424   -3.6917   16.2045 H   0  0  0  0  0  0  0  0  0  0  0  0
   25.7204   -1.8912   15.5345 H   0  0  0  0  0  0  0  0  0  0  0  0
   25.4711   -3.9008   17.5122 H   0  0  0  0  0  0  0  0  0  0  0  0
   27.5954   -2.1070   16.8245 H   0  0  0  0  0  0  0  0  0  0  0  0
   27.4308   -4.1380   18.8511 H   0  0  0  0  0  0  0  0  0  0  0  0
   29.5234   -2.3332   18.2000 H   0  0  0  0  0  0  0  0  0  0  0  0
   29.3227   -4.3558   20.1689 H   0  0  0  0  0  0  0  0  0  0  0  0
   31.3992   -2.5514   19.5013 H   0  0  0  0  0  0  0  0  0  0  0  0
   31.1967   -4.5717   21.4865 H   0  0  0  0  0  0  0  0  0  0  0  0
   33.2944   -2.7748   20.8229 H   0  0  0  0  0  0  0  0  0  0  0  0
   33.0827   -4.8097   22.7901 H   0  0  0  0  0  0  0  0  0  0  0  0
   35.2564   -2.9308   22.1100 H   0  0  0  0  0  0  0  0  0  0  0  0
   35.2667   -4.6839   21.8048 H   0  0  0  0  0  0  0  0  0  0  0  0
   35.0339   -5.0996   24.2476 H   0  0  0  0  0  0  0  0  0  0  0  0
   35.0360   -3.3496   24.5438 H   0  0  0  0  0  0  0  0  0  0  0  0
   37.2930   -3.1792   23.5175 H   0  0  0  0  0  0  0  0  0  0  0  0
   37.2903   -4.9280   23.2200 H   0  0  0  0  0  0  0  0  0  0  0  0
   37.0625   -5.3434   25.6589 H   0  0  0  0  0  0  0  0  0  0  0  0
   37.0625   -3.5945   25.9573 H   0  0  0  0  0  0  0  0  0  0  0  0
   39.3190   -3.4189   24.9322 H   0  0  0  0  0  0  0  0  0  0  0  0
   39.3190   -5.1673   24.6313 H   0  0  0  0  0  0  0  0  0  0  0  0
   39.0893   -5.5870   27.0700 H   0  0  0  0  0  0  0  0  0  0  0  0
   39.0893   -3.8385   27.3708 H   0  0  0  0  0  0  0  0  0  0  0  0
   41.3457   -3.6619   26.3445 H   0  0  0  0  0  0  0  0  0  0  0  0
   41.3457   -5.4104   26.0436 H   0  0  0  0  0  0  0  0  0  0  0  0
   41.1160   -5.8300   28.4823 H   0  0  0  0  0  0  0  0  0  0  0  0
   41.1160   -4.0815   28.7832 H   0  0  0  0  0  0  0  0  0  0  0  0
   43.3724   -3.9049   27.7568 H   0  0  0  0  0  0  0  0  0  0  0  0
   43.3724   -5.6534   27.4560 H   0  0  0  0  0  0  0  0  0  0  0  0
   43.1426   -6.0730   29.8946 H   0  0  0  0  0  0  0  0  0  0  0  0
   43.1426   -4.3245   30.1955 H   0  0  0  0  0  0  0  0  0  0  0  0
   45.3990   -4.1479   29.1691 H   0  0  0  0  0  0  0  0  0  0  0  0
   45.3990   -5.8964   28.8683 H   0  0  0  0  0  0  0  0  0  0  0  0
   45.1693   -6.3160   31.3069 H   0  0  0  0  0  0  0  0  0  0  0  0
   45.1693   -4.5676   31.6078 H   0  0  0  0  0  0  0  0  0  0  0  0
   47.4257   -4.3909   30.5815 H   0  0  0  0  0  0  0  0  0  0  0  0
   47.4257   -6.1394   30.2806 H   0  0  0  0  0  0  0  0  0  0  0  0
   47.1948   -6.5584   32.7198 H   0  0  0  0  0  0  0  0  0  0  0  0
   47.1971   -4.8098   33.0198 H   0  0  0  0  0  0  0  0  0  0  0  0
   49.4535   -4.6366   31.9929 H   0  0  0  0  0  0  0  0  0  0  0  0
   49.4512   -6.3852   31.6929 H   0  0  0  0  0  0  0  0  0  0  0  0
   49.2203   -6.8027   34.1323 H   0  0  0  0  0  0  0  0  0  0  0  0
   49.2250   -5.0540   34.4315 H   0  0  0  0  0  0  0  0  0  0  0  0
   51.4814   -4.8837   33.4053 H   0  0  0  0  0  0  0  0  0  0  0  0
   51.4767   -6.6321   33.1037 H   0  0  0  0  0  0  0  0  0  0  0  0
   51.2481   -7.0529   35.5417 H   0  0  0  0  0  0  0  0  0  0  0  0
   51.2504   -5.3047   35.8442 H   0  0  0  0  0  0  0  0  0  0  0  0
   53.5069   -5.1306   34.8162 H   0  0  0  0  0  0  0  0  0  0  0  0
   53.5045   -6.8792   34.5161 H   0  0  0  0  0  0  0  0  0  0  0  0
   53.2736   -7.2967   36.9556 H   0  0  0  0  0  0  0  0  0  0  0  0
   53.2783   -5.5479   37.2548 H   0  0  0  0  0  0  0  0  0  0  0  0
   55.5347   -5.3777   36.2286 H   0  0  0  0  0  0  0  0  0  0  0  0
   55.5300   -7.1261   35.9269 H   0  0  0  0  0  0  0  0  0  0  0  0
   55.3014   -7.5469   38.3650 H   0  0  0  0  0  0  0  0  0  0  0  0
   55.3037   -5.7987   38.6675 H   0  0  0  0  0  0  0  0  0  0  0  0
   57.5602   -5.6240   37.6408 H   0  0  0  0  0  0  0  0  0  0  0  0
   57.5578   -7.3722   37.3383 H   0  0  0  0  0  0  0  0  0  0  0  0
   57.3269   -7.7932   39.7772 H   0  0  0  0  0  0  0  0  0  0  0  0
   57.3316   -6.0448   40.0788 H   0  0  0  0  0  0  0  0  0  0  0  0
   59.5880   -5.8737   39.0516 H   0  0  0  0  0  0  0  0  0  0  0  0
   59.5833   -7.6220   38.7499 H   0  0  0  0  0  0  0  0  0  0  0  0
   59.3535   -8.0422   41.1885 H   0  0  0  0  0  0  0  0  0  0  0  0
   59.3582   -6.2938   41.4901 H   0  0  0  0  0  0  0  0  0  0  0  0
   61.6146   -6.1226   40.4628 H   0  0  0  0  0  0  0  0  0  0  0  0
   61.6099   -7.8710   40.1612 H   0  0  0  0  0  0  0  0  0  0  0  0
   61.3802   -8.2911   42.5998 H   0  0  0  0  0  0  0  0  0  0  0  0
   61.3849   -6.5428   42.9014 H   0  0  0  0  0  0  0  0  0  0  0  0
   63.6413   -6.3716   41.8741 H   0  0  0  0  0  0  0  0  0  0  0  0
   63.6366   -8.1200   41.5725 H   0  0  0  0  0  0  0  0  0  0  0  0
   63.4068   -8.5401   44.0111 H   0  0  0  0  0  0  0  0  0  0  0  0
   63.4115   -6.7918   44.3127 H   0  0  0  0  0  0  0  0  0  0  0  0
   65.6679   -6.6206   43.2854 H   0  0  0  0  0  0  0  0  0  0  0  0
   65.6632   -8.3689   42.9838 H   0  0  0  0  0  0  0  0  0  0  0  0
   65.4335   -8.7891   45.4224 H   0  0  0  0  0  0  0  0  0  0  0  0
   65.4382   -7.0407   45.7240 H   0  0  0  0  0  0  0  0  0  0  0  0
   67.6946   -6.8696   44.6967 H   0  0  0  0  0  0  0  0  0  0  0  0
   67.6899   -8.6179   44.3951 H   0  0  0  0  0  0  0  0  0  0  0  0
   67.4613   -9.0387   46.8331 H   0  0  0  0  0  0  0  0  0  0  0  0
   67.4636   -7.2905   47.1356 H   0  0  0  0  0  0  0  0  0  0  0  0
   69.7200   -7.1159   46.1089 H   0  0  0  0  0  0  0  0  0  0  0  0
   69.7177   -8.8641   45.8064 H   0  0  0  0  0  0  0  0  0  0  0  0
   69.4879   -9.2857   48.2448 H   0  0  0  0  0  0  0  0  0  0  0  0
   69.4903   -7.5375   48.5473 H   0  0  0  0  0  0  0  0  0  0  0  0
   71.7467   -7.3629   47.5206 H   0  0  0  0  0  0  0  0  0  0  0  0
   71.7443   -9.1111   47.2181 H   0  0  0  0  0  0  0  0  0  0  0  0
   71.5146   -9.5327   49.6564 H   0  0  0  0  0  0  0  0  0  0  0  0
   71.5169   -7.7845   49.9589 H   0  0  0  0  0  0  0  0  0  0  0  0
   73.7733   -7.6098   48.9322 H   0  0  0  0  0  0  0  0  0  0  0  0
   73.7710   -9.3580   48.6297 H   0  0  0  0  0  0  0  0  0  0  0  0
   73.5424   -9.7803   51.0675 H   0  0  0  0  0  0  0  0  0  0  0  0
   73.5424   -8.0323   51.3708 H   0  0  0  0  0  0  0  0  0  0  0  0
   75.7988   -7.8542   50.3447 H   0  0  0  0  0  0  0  0  0  0  0  0
   75.7988   -9.6022   50.0414 H   0  0  0  0  0  0  0  0  0  0  0  0
   75.5691  -10.0253   52.4795 H   0  0  0  0  0  0  0  0  0  0  0  0
   75.5691   -8.2773   52.7828 H   0  0  0  0  0  0  0  0  0  0  0  0
   77.8255   -8.0986   51.7580 H   0  0  0  0  0  0  0  0  0  0  0  0
   77.8255   -9.8463   51.4522 H   0  0  0  0  0  0  0  0  0  0  0  0
   77.5946  -10.2719   53.8899 H   0  0  0  0  0  0  0  0  0  0  0  0
   77.5970   -8.5245   54.1948 H   0  0  0  0  0  0  0  0  0  0  0  0
   79.8569   -8.3491   53.1731 H   0  0  0  0  0  0  0  0  0  0  0  0
   79.8545  -10.0968   52.8682 H   0  0  0  0  0  0  0  0  0  0  0  0
   79.6347   -8.7720   55.6097 H   0  0  0  0  0  0  0  0  0  0  0  0
   81.0819   -9.5605   54.9459 H   0  0  0  0  0  0  0  0  0  0  0  0
   79.6323  -10.5235   55.3040 H   0  0  0  0  0  0  0  0  0  0  0  0
  1  2  1  0  0  0  0
  1 82  1  0  0  0  0
  1 83  1  0  0  0  0
  1 84  1  0  0  0  0
  2  3  1  0  0  0  0
  2 85  1  0  0  0  0
  2 86  1  0  0  0  0
  3  4  1  0  0  0  0
  3 87  1  0  0  0  0
  3 88  1  0  0  0  0
  4  5  1  0  0  0  0
  4 89  1  0  0  0  0
  4 90  1  0  0  0  0
  5  6  1  0  0  0  0
  5 91  1  0  0  0  0
  6  7  1  0  0  0  0
  6 92  1  0  0  0  0
  7  8  1  0  0  0  0
  7 93  1  0  0  0  0
  8  9  1  0  0  0  0
  8 94  1  0  0  0  0
  9 10  1  0  0  0  0
  9 95  1  0  0  0  0
 10 11  1  0  0  0  0
 10 96  1  0  0  0  0
 11 12  1  0  0  0  0
 11 97  1  0  0  0  0
 12 13  1  0  0  0  0
 12 98  1  0  0  0  0
 13 14  1  0  0  0  0
 13 99  1  0  0  0  0
 14 15  1  0  0  0  0
 14100  1  0  0  0  0
 15 16  1  0  0  0  0
 15101  1  0  0  0  0
 16 17  1  0  0  0  0
 16102  1  0  0  0  0
 17 18  1  0  0  0  0
 17103  1  0  0  0  0
 18 19  1  0  0  0  0
 18104  1  0  0  0  0
 19 20  1  0  0  0  0
 19105  1  0  0  0  0
 20 21  1  0  0  0  0
 20106  1  0  0  0  0
 21 22  1  0  0  0  0
 21107  1  0  0  0  0
 22 23  1  0  0  0  0
 22108  1  0  0  0  0
 23 24  1  0  0  0  0
 23109  1  0  0  0  0
 24 25  1  0  0  0  0
 24110  1  0  0  0  0
 25 26  1  0  0  0  0
 25111  1  0  0  0  0
 26 27  1  0  0  0  0
 26112  1  0  0  0  0
 27 28  1  0  0  0  0
 27113  1  0  0  0  0
 28 29  1  0  0  0  0
 28114  1  0  0  0  0
 29 30  1  0  0  0  0
 29115  1  0  0  0  0
 30 31  1  0  0  0  0
 30116  1  0  0  0  0
 31 32  1  0  0  0  0
 31117  1  0  0  0  0
 32 33  1  0  0  0  0
 32118  1  0  0  0  0
 33 34  1  0  0  0  0
 33119  1  0  0  0  0
 34 35  1  0  0  0  0
 34120  1  0  0  0  0
 35 36  1  0  0  0  0
 35121  1  0  0  0  0
 36 37  1  0  0  0  0
 36122  1  0  0  0  0
 36123  1  0  0  0  0
 37 38  1  0  0  0  0
 37124  1  0  0  0  0
 37125  1  0  0  0  0
 38 39  1  0  0  0  0
 38126  1  0  0  0  0
 38127  1  0  0  0  0
 39 40  1  0  0  0  0
 39128  1  0  0  0  0
 39129  1  0  0  0  0
 40 41  1  0  0  0  0
 40130  1  0  0  0  0
 40131  1  0  0  0  0
 41 42  1  0  0  0  0
 41132  1  0  0  0  0
 41133  1  0  0  0  0
 42 43  1  0  0  0  0
 42134  1  0  0  0  0
 42135  1  0  0  0  0
 43 44  1  0  0  0  0
 43136  1  0  0  0  0
 43137  1  0  0  0  0
 44 45  1  0  0  0  0
 44138  1  0  0  0  0
 44139  1  0  0  0  0
 45 46  1  0  0  0  0
 45140  1  0  0  0  0
 45141  1  0  0  0  0
 46 47  1  0  0  0  0
 46142  1  0  0  0  0
 46143  1  0  0  0  0
 47 48  1  0  0  0  0
 47144  1  0  0  0  0
 47145  1  0  0  0  0
 48 49  1  0  0  0  0
 48146  1  0  0  0  0
 48147  1  0  0  0  0
 49 50  1  0  0  0  0
 49148  1  0  0  0  0
 49149  1  0  0  0  0
 50 51  1  0  0  0  0
 50150  1  0  0  0  0
 50151  1  0  0  0  0
 51 52  1  0  0  0  0
 51152  1  0  0  0  0
 51153  1  0  0  0  0
 52 53  1  0  0  0  0
 52154  1  0  0  0  0
 52155  1  0  0  0  0
 53 54  1  0  0  0  0
 53156  1  0  0  0  0
 53157  1  0  0  0  0
 54 55  1  0  0  0  0
 54158  1  0  0  0  0
 54159  1  0  0  0  0
 55 56  1  0  0  0  0
 55160  1  0  0  0  0
 55161  1  0  0  0  0
 56 57  1  0  0  0  0
 56162  1  0  0  0  0
 56163  1  0  0  0  0
 57 58  1  0  0  0  0
 57164  1  0  0  0  0
 57165  1  0  0  0  0
 58 59  1  0  0  0  0
 58166  1  0  0  0  0
 58167  1  0  0  0  0
 59 60  1  0  0  0  0
 59168  1  0  0  0  0
 59169  1  0  0  0  0
 60 61  1  0  0  0  0
 60170  1  0  0  0  0
 60171  1  0  0  0  0
 61 62  1  0  0  0  0
 61172  1  0  0  0  0
 61173  1  0  0  0  0
 62 63  1  0  0  0  0
 62174  1  0  0  0  0
 62175  1  0  0  0  0
 63 64  1  0  0  0  0
 63176  1  0  0  0  0
 63177  1  0  0  0  0
 64 65  1  0  0  0  0
 64178  1  0  0  0  0
 64179  1  0  0  0  0
 65 66  1  0  0  0  0
 65180  1  0  0  0  0
 65181  1  0  0  0  0
 66 67  1  0  0  0  0
 66182  1  0  0  0  0
 66183  1  0  0  0  0
 67 68  1  0  0  0  0
 67184  1  0  0  0  0
 67185  1  0  0  0  0
 68 69  1  0  0  0  0
 68186  1  0  0  0  0
 68187  1  0  0  0  0
 69 70  1  0  0  0  0
 69188  1  0  0  0  0
 69189  1  0  0  0  0
 70 71  1  0  0  0  0
 70190  1  0  0  0  0
 70191  1  0  0  0  0
 71 72  1  0  0  0  0
 71192  1  0  0  0  0
 71193  1  0  0  0  0
 72 73  1  0  0  0  0
 72194  1  0  0  0  0
 72195  1  0  0  0  0
 73 74  1  0  0  0  0
 73196  1  0  0  0  0
 73197  1  0  0  0  0
 74 75  1  0  0  0  0
 74198  1  0  0  0  0
 74199  1  0  0  0  0
 75 76  1  0  0  0  0
 75200  1  0  0  0  0
 75201  1  0  0  0  0
 76 77  1  0  0  0  0
 76202  1  0  0  0  0
 76203  1  0  0  0  0
 77 78  1  0  0  0  0
 77204  1  0  0  0  0
 77205  1  0  0  0  0
 78 79  1  0  0  0  0
 78206  1  0  0  0  0
 78207  1  0  0  0  0
 79 80  1  0  0  0  0
 79208  1  0  0  0  0
 79209  1  0  0  0  0
 80 81  1  0  0  0  0
 80210  1  0  0  0  0
 80211  1  0  0  0  0
 81212  1  0  0  0  0
 81213  1  0  0  0  0
 81214  1  0  0  0  0
M  END
$$$$
