
 OpenBabel04232216573D

 62 62  0  0  0  0  0  0  0  0999 V2000
    6.5447   -0.0944    5.5408 C   0  0  0  0  0  0  0  0  0  0  0  0
    7.9832   -0.4568    6.3009 O   0  0  0  0  0  0  0  0  0  0  0  0
    8.8124   -1.8884    6.1459 C   0  0  0  0  0  0  0  0  0  0  0  0
    7.9937   -2.6889    5.2596 C   0  0  0  0  0  0  0  0  0  0  0  0
    6.8609   -2.6210    3.9261 C   0  0  0  0  0  0  0  0  0  0  0  0
    7.0995   -2.0797    2.6998 C   0  0  0  0  0  0  0  0  0  0  0  0
    8.4163   -1.5022    2.6989 C   0  0  0  0  0  0  0  0  0  0  0  0
    9.7933   -1.2654    2.2518 C   0  0  0  0  0  0  0  0  0  0  0  0
   10.4626   -1.5705    3.5798 C   0  0  0  0  0  0  0  0  0  0  0  0
   11.8903   -1.6115    3.4147 C   0  0  0  0  0  0  0  0  0  0  0  0
   12.4025   -2.1132    4.6952 C   0  0  0  0  0  0  0  0  0  0  0  0
   13.8145   -2.1076    4.4724 C   0  0  0  0  0  0  0  0  0  0  0  0
   14.5113   -2.5568    5.6842 C   0  0  0  0  0  0  0  0  0  0  0  0
   15.9105   -2.3949    5.1906 C   0  0  0  0  0  0  0  0  0  0  0  0
   16.7661   -2.8536    6.2916 C   0  0  0  0  0  0  0  0  0  0  0  0
   18.2415   -2.7506    5.9291 C   0  0  0  0  0  0  0  0  0  0  0  0
   18.6956   -3.2551    7.2238 C   0  0  0  0  0  0  0  0  0  0  0  0
   19.8122   -3.5653    8.0880 C   0  0  0  0  0  0  0  0  0  0  0  0
   18.6737   -3.9247    9.4034 C   0  0  0  0  0  0  0  0  0  0  0  0
   16.8282   -3.6010    9.5282 C   0  0  0  0  0  0  0  0  0  0  0  0
   15.0388   -3.4318    8.7751 C   0  0  0  0  0  0  0  0  0  0  0  0
   13.3589   -2.6772    8.5536 O   0  0  0  0  0  0  0  0  0  0  0  0
   11.8375   -2.9438    7.6878 C   0  0  0  0  0  0  0  0  0  0  0  0
   10.4067   -2.2193    7.1197 C   0  0  0  0  0  0  0  0  0  0  0  0
    5.6883   -0.7535    5.8182 H   0  0  0  0  0  0  0  0  0  0  0  0
    6.6078   -0.0694    4.4371 H   0  0  0  0  0  0  0  0  0  0  0  0
    6.1886    0.9280    5.7909 H   0  0  0  0  0  0  0  0  0  0  0  0
    7.0393   -2.1944    5.5651 H   0  0  0  0  0  0  0  0  0  0  0  0
    5.8187   -2.9322    4.0928 H   0  0  0  0  0  0  0  0  0  0  0  0
    6.4604   -1.9156    1.8304 H   0  0  0  0  0  0  0  0  0  0  0  0
    8.7273   -2.5340    2.9631 H   0  0  0  0  0  0  0  0  0  0  0  0
    8.2970   -0.7322    3.4648 H   0  0  0  0  0  0  0  0  0  0  0  0
    9.9630   -0.2175    1.9844 H   0  0  0  0  0  0  0  0  0  0  0  0
   10.1256   -1.9279    1.4461 H   0  0  0  0  0  0  0  0  0  0  0  0
   10.1916   -2.5751    3.9805 H   0  0  0  0  0  0  0  0  0  0  0  0
   10.1854   -0.8406    4.3558 H   0  0  0  0  0  0  0  0  0  0  0  0
   12.2475   -0.5915    3.2023 H   0  0  0  0  0  0  0  0  0  0  0  0
   12.1549   -2.2887    2.5952 H   0  0  0  0  0  0  0  0  0  0  0  0
   12.0303   -3.1356    4.9488 H   0  0  0  0  0  0  0  0  0  0  0  0
   12.1410   -1.4311    5.5222 H   0  0  0  0  0  0  0  0  0  0  0  0
   14.1409   -1.0734    4.2167 H   0  0  0  0  0  0  0  0  0  0  0  0
   14.0874   -2.7583    3.6036 H   0  0  0  0  0  0  0  0  0  0  0  0
   14.2265   -3.5738    5.9471 H   0  0  0  0  0  0  0  0  0  0  0  0
   14.2869   -1.8659    6.5341 H   0  0  0  0  0  0  0  0  0  0  0  0
   16.1347   -1.3631    5.0064 H   0  0  0  0  0  0  0  0  0  0  0  0
   16.1057   -3.0193    4.3399 H   0  0  0  0  0  0  0  0  0  0  0  0
   16.4992   -3.8918    6.5439 H   0  0  0  0  0  0  0  0  0  0  0  0
   16.5541   -2.2188    7.1587 H   0  0  0  0  0  0  0  0  0  0  0  0
   18.5108   -1.7038    5.7392 H   0  0  0  0  0  0  0  0  0  0  0  0
   18.4725   -3.3831    5.0619 H   0  0  0  0  0  0  0  0  0  0  0  0
   18.2387   -4.2504    7.2469 H   0  0  0  0  0  0  0  0  0  0  0  0
   18.3285   -2.4612    7.8405 H   0  0  0  0  0  0  0  0  0  0  0  0
   20.4932   -2.7120    8.2395 H   0  0  0  0  0  0  0  0  0  0  0  0
   20.4333   -4.4000    7.7024 H   0  0  0  0  0  0  0  0  0  0  0  0
   18.9787   -5.0155    9.5492 H   0  0  0  0  0  0  0  0  0  0  0  0
   19.3246   -3.4623   10.2328 H   0  0  0  0  0  0  0  0  0  0  0  0
   17.1166   -2.5268    9.3905 H   0  0  0  0  0  0  0  0  0  0  0  0
   16.8920   -4.4442    8.8727 H   0  0  0  0  0  0  0  0  0  0  0  0
   15.0379   -4.1076    7.8875 H   0  0  0  0  0  0  0  0  0  0  0  0
   15.2911   -2.4179    8.6147 H   0  0  0  0  0  0  0  0  0  0  0  0
   12.0222   -3.9118    7.3172 H   0  0  0  0  0  0  0  0  0  0  0  0
   10.1118   -3.2163    6.6869 H   0  0  0  0  0  0  0  0  0  0  0  0
  1  2  1  0  0  0  0
  1 25  1  0  0  0  0
  1 26  1  0  0  0  0
  1 27  1  0  0  0  0
  2  3  1  0  0  0  0
  3  4  2  3  0  0  0
  3 24  1  0  0  0  0
  4  5  1  0  0  0  0
  4 28  1  0  0  0  0
  5  6  2  3  0  0  0
  5 29  1  0  0  0  0
  6  7  1  0  0  0  0
  6 30  1  0  0  0  0
  7  8  1  0  0  0  0
  7 31  1  0  0  0  0
  7 32  1  0  0  0  0
  8  9  1  0  0  0  0
  8 33  1  0  0  0  0
  8 34  1  0  0  0  0
  9 10  1  0  0  0  0
  9 35  1  0  0  0  0
  9 36  1  0  0  0  0
 10 11  1  0  0  0  0
 10 37  1  0  0  0  0
 10 38  1  0  0  0  0
 11 12  1  0  0  0  0
 11 39  1  0  0  0  0
 11 40  1  0  0  0  0
 12 13  1  0  0  0  0
 12 41  1  0  0  0  0
 12 42  1  0  0  0  0
 13 14  1  0  0  0  0
 13 43  1  0  0  0  0
 13 44  1  0  0  0  0
 14 15  1  0  0  0  0
 14 45  1  0  0  0  0
 14 46  1  0  0  0  0
 15 16  1  0  0  0  0
 15 47  1  0  0  0  0
 15 48  1  0  0  0  0
 16 17  1  0  0  0  0
 16 49  1  0  0  0  0
 16 50  1  0  0  0  0
 17 18  1  0  0  0  0
 17 51  1  0  0  0  0
 17 52  1  0  0  0  0
 18 19  1  0  0  0  0
 18 53  1  0  0  0  0
 18 54  1  0  0  0  0
 19 20  1  0  0  0  0
 19 55  1  0  0  0  0
 19 56  1  0  0  0  0
 20 21  1  0  0  0  0
 20 57  1  0  0  0  0
 20 58  1  0  0  0  0
 21 22  1  0  0  0  0
 21 59  1  0  0  0  0
 21 60  1  0  0  0  0
 22 23  1  0  0  0  0
 23 24  2  3  0  0  0
 23 61  1  0  0  0  0
 24 62  1  0  0  0  0
M  END
$$$$
