
 OpenBabel04232216573D

 44 45  0  0  0  0  0  0  0  0999 V2000
    3.3634   -2.1399    0.0289 C   0  0  0  0  0  0  0  0  0  0  0  0
    3.2550   -1.0507    0.9367 O   0  0  0  0  0  0  0  0  0  0  0  0
    4.3405   -0.2406    1.1314 C   0  0  0  0  0  0  0  0  0  0  0  0
    3.9464    1.1066    1.4390 C   0  0  0  0  0  3  0  0  0  0  0  0
    4.5547    1.7813    2.5724 C   0  0  0  0  0  0  0  0  0  0  0  0
    5.8231    2.5344    2.2870 C   0  0  0  0  0  0  0  0  0  0  0  0
    5.2779    3.9129    1.8041 C   0  0  0  0  0  0  0  0  0  0  0  0
    6.7681    1.6711    1.4167 C   0  0  0  0  0  0  0  0  0  0  0  0
    6.7985    0.3167    1.2447 C   0  0  0  0  0  0  0  0  0  0  0  0
    8.0076   -0.2985    0.9614 N   0  0  0  0  0  0  0  0  0  0  0  0
    9.2924   -0.0202    1.3225 C   0  0  0  0  0  0  0  0  0  0  0  0
   10.2461   -0.4383    0.6680 O   0  0  0  0  0  0  0  0  0  0  0  0
    9.5600    0.6189    2.6377 C   0  0  0  0  0  3  0  0  0  0  0  0
   10.6616    1.6401    2.7823 C   0  0  0  0  0  0  0  0  0  0  0  0
   10.6230    2.4002    4.1308 C   0  0  0  0  0  0  0  0  0  0  0  0
   10.3150    3.9057    4.0308 C   0  0  0  0  0  0  0  0  0  0  0  0
    8.8316    4.2328    4.2539 C   0  0  0  0  0  0  0  0  0  0  0  0
    7.9705    3.6971    3.1270 C   0  0  0  0  0  0  0  0  0  0  0  0
    6.7387    2.8380    3.5361 C   0  0  0  0  0  0  0  0  0  0  0  0
    5.6519   -0.5837    1.1860 C   0  0  0  0  0  0  0  0  0  0  0  0
    2.8329   -2.9891    0.4668 H   0  0  0  0  0  0  0  0  0  0  0  0
    4.3869   -2.4464   -0.1968 H   0  0  0  0  0  0  0  0  0  0  0  0
    2.8601   -1.8754   -0.9073 H   0  0  0  0  0  0  0  0  0  0  0  0
    3.7521    1.7055    0.5442 H   0  0  0  0  0  0  0  0  0  0  0  0
    4.0522    1.7598    3.5292 H   0  0  0  0  0  0  0  0  0  0  0  0
    4.6113    3.8342    0.9402 H   0  0  0  0  0  0  0  0  0  0  0  0
    6.0439    4.6360    1.5302 H   0  0  0  0  0  0  0  0  0  0  0  0
    4.6986    4.3615    2.6180 H   0  0  0  0  0  0  0  0  0  0  0  0
    7.6500    2.1991    1.0698 H   0  0  0  0  0  0  0  0  0  0  0  0
    7.9658   -1.1430    0.3943 H   0  0  0  0  0  0  0  0  0  0  0  0
    9.4560   -0.0882    3.4585 H   0  0  0  0  0  0  0  0  0  0  0  0
   10.6397    2.3324    1.9337 H   0  0  0  0  0  0  0  0  0  0  0  0
   11.6230    1.1136    2.7251 H   0  0  0  0  0  0  0  0  0  0  0  0
   11.6197    2.3138    4.5845 H   0  0  0  0  0  0  0  0  0  0  0  0
    9.9302    1.9287    4.8386 H   0  0  0  0  0  0  0  0  0  0  0  0
   10.6632    4.3151    3.0743 H   0  0  0  0  0  0  0  0  0  0  0  0
   10.8814    4.4331    4.8085 H   0  0  0  0  0  0  0  0  0  0  0  0
    8.7252    5.3253    4.2655 H   0  0  0  0  0  0  0  0  0  0  0  0
    8.4971    3.8703    5.2287 H   0  0  0  0  0  0  0  0  0  0  0  0
    8.6058    3.1270    2.4585 H   0  0  0  0  0  0  0  0  0  0  0  0
    7.6784    4.5598    2.5280 H   0  0  0  0  0  0  0  0  0  0  0  0
    6.1649    3.3463    4.3193 H   0  0  0  0  0  0  0  0  0  0  0  0
    7.0925    1.8960    3.9763 H   0  0  0  0  0  0  0  0  0  0  0  0
    5.8834   -1.6486    1.1411 H   0  0  0  0  0  0  0  0  0  0  0  0
  1  2  1  0  0  0  0
  1 21  1  0  0  0  0
  1 22  1  0  0  0  0
  1 23  1  0  0  0  0
  2  3  1  0  0  0  0
  3  4  1  0  0  0  0
  3 20  2  0  0  0  0
  4  5  1  0  0  0  0
  4 24  1  0  0  0  0
  5  6  2  0  0  0  0
  5 25  1  0  0  0  0
  6  7  1  0  0  0  0
  6  8  1  0  0  0  0
  6 19  1  0  0  0  0
  7 26  1  0  0  0  0
  7 27  1  0  0  0  0
  7 28  1  0  0  0  0
  8  9  2  0  0  0  0
  8 29  1  0  0  0  0
  9 10  1  0  0  0  0
  9 20  1  0  0  0  0
 10 11  1  0  0  0  0
 10 30  1  0  0  0  0
 11 12  2  0  0  0  0
 11 13  1  0  0  0  0
 13 14  1  0  0  0  0
 13 31  1  0  0  0  0
 14 15  1  0  0  0  0
 14 32  1  0  0  0  0
 14 33  1  0  0  0  0
 15 16  1  0  0  0  0
 15 34  1  0  0  0  0
 15 35  1  0  0  0  0
 16 17  1  0  0  0  0
 16 36  1  0  0  0  0
 16 37  1  0  0  0  0
 17 18  1  0  0  0  0
 17 38  1  0  0  0  0
 17 39  1  0  0  0  0
 18 19  1  0  0  0  0
 18 40  1  0  0  0  0
 18 41  1  0  0  0  0
 19 42  1  0  0  0  0
 19 43  1  0  0  0  0
 20 44  1  0  0  0  0
M  END
$$$$
