
 OpenBabel04232216443D

 63 64  0  0  1  0  0  0  0  0999 V2000
    1.7703    1.9821   -1.2877 C   0  0  0  0  0  0  0  0  0  0  0  0
    3.1785    2.4599   -1.7877 C   0  0  3  0  0  0  0  0  0  0  0  0
    3.9106    3.8882   -2.5941 C   0  0  0  0  0  0  0  0  0  0  0  0
    3.7549    4.8269   -1.6835 C   0  0  0  0  0  0  0  0  0  0  0  0
    3.0964    5.0822   -0.5682 C   0  0  0  0  0  0  0  0  0  0  0  0
    3.4810    4.7236    0.8633 C   0  0  0  0  0  0  0  0  0  0  0  0
    5.2270    3.7164   -3.7221 C   0  0  0  0  0  0  0  0  0  0  0  0
    5.2754    2.2697   -3.5051 C   0  0  0  0  0  0  0  0  0  0  0  0
    5.4540    0.8735   -4.2472 C   0  0  0  0  0  0  0  0  0  0  0  0
    6.1211    1.5340   -5.2584 C   0  0  0  0  0  0  0  0  0  0  0  0
    6.8931    0.8626   -6.2560 C   0  0  0  0  0  0  0  0  0  0  0  0
    7.2795    2.2359   -6.6357 C   0  0  0  0  0  0  0  0  0  0  0  0
    8.1567    2.0664   -7.7292 C   0  0  0  0  0  0  0  0  0  0  0  0
    8.2901    3.4675   -7.9486 C   0  0  0  0  0  0  0  0  0  0  0  0
    8.8803    3.2984   -9.1903 N   0  0  0  0  0  0  0  0  0  0  0  0
    9.1495    4.6175   -9.4610 C   0  0  0  0  0  0  0  0  0  0  0  0
    9.9169    4.4816  -10.7827 C   0  0  0  0  0  0  0  0  0  0  0  0
    9.6921    5.9245  -11.1178 C   0  0  0  0  0  0  0  0  0  0  0  0
   10.4215    7.1775  -11.0854 C   0  0  0  0  0  0  0  0  0  0  0  0
    9.5322    8.0434   -9.9357 O   0  0  0  0  0  0  0  0  0  0  0  0
    9.3368    7.1320   -8.4160 O   0  0  0  0  0  0  0  0  0  0  0  0
    7.8270    7.2371   -7.5856 C   0  0  0  0  0  0  0  0  0  0  0  0
    7.1724    5.8184   -6.3738 C   0  0  0  0  0  0  0  0  0  0  0  0
    5.9266    5.1251   -4.9433 C   0  0  0  0  0  0  0  0  0  0  0  0
    5.1470    1.4932   -2.2572 C   0  0  0  0  0  0  0  0  0  0  0  0
    3.8899    1.2059   -1.9825 C   0  0  0  0  0  0  0  0  0  0  0  0
    1.2077    2.6920   -0.6803 H   0  0  0  0  0  0  0  0  0  0  0  0
    1.9326    1.1513   -0.5569 H   0  0  0  0  0  0  0  0  0  0  0  0
    1.1432    1.5115   -2.0509 H   0  0  0  0  0  0  0  0  0  0  0  0
    3.5891    2.6577   -0.7813 H   0  0  0  0  0  0  0  0  0  0  0  0
    2.0273    4.8467   -0.6672 H   0  0  0  0  0  0  0  0  0  0  0  0
    4.2558    3.9528    0.9500 H   0  0  0  0  0  0  0  0  0  0  0  0
    2.6071    4.3221    1.4054 H   0  0  0  0  0  0  0  0  0  0  0  0
    3.7947    5.6185    1.4014 H   0  0  0  0  0  0  0  0  0  0  0  0
    4.5311    0.3769   -4.5771 H   0  0  0  0  0  0  0  0  0  0  0  0
    6.1465    0.1146   -3.8390 H   0  0  0  0  0  0  0  0  0  0  0  0
    6.9027    2.0418   -4.6451 H   0  0  0  0  0  0  0  0  0  0  0  0
    5.3123    2.1310   -5.7221 H   0  0  0  0  0  0  0  0  0  0  0  0
    6.3040    0.3206   -6.9927 H   0  0  0  0  0  0  0  0  0  0  0  0
    7.7353    0.2801   -5.8735 H   0  0  0  0  0  0  0  0  0  0  0  0
    7.8041    2.8436   -5.8521 H   0  0  0  0  0  0  0  0  0  0  0  0
    6.3906    2.8475   -6.9291 H   0  0  0  0  0  0  0  0  0  0  0  0
    7.6205    1.5251   -8.5127 H   0  0  0  0  0  0  0  0  0  0  0  0
    9.0895    1.5913   -7.4369 H   0  0  0  0  0  0  0  0  0  0  0  0
    8.8783    3.9878   -7.1585 H   0  0  0  0  0  0  0  0  0  0  0  0
    7.3065    4.0034   -8.0810 H   0  0  0  0  0  0  0  0  0  0  0  0
    8.1584    2.9797   -9.8534 H   0  0  0  0  0  0  0  0  0  0  0  0
    9.7972    5.0417   -8.6518 H   0  0  0  0  0  0  0  0  0  0  0  0
    8.1946    5.2122   -9.5157 H   0  0  0  0  0  0  0  0  0  0  0  0
    9.3680    3.8432  -11.4324 H   0  0  0  0  0  0  0  0  0  0  0  0
   10.8974    4.2057  -10.5761 H   0  0  0  0  0  0  0  0  0  0  0  0
    9.8169    6.1660  -10.1165 H   0  0  0  0  0  0  0  0  0  0  0  0
    8.6273    6.1412  -11.3640 H   0  0  0  0  0  0  0  0  0  0  0  0
   10.3673    7.6150  -12.1137 H   0  0  0  0  0  0  0  0  0  0  0  0
   11.4875    7.0420  -10.8191 H   0  0  0  0  0  0  0  0  0  0  0  0
    8.0088    8.1858   -7.0659 H   0  0  0  0  0  0  0  0  0  0  0  0
    7.1741    7.4014   -8.4608 H   0  0  0  0  0  0  0  0  0  0  0  0
    8.1348    5.3736   -6.0937 H   0  0  0  0  0  0  0  0  0  0  0  0
    6.5990    5.4187   -7.2086 H   0  0  0  0  0  0  0  0  0  0  0  0
    5.0168    5.6804   -5.2154 H   0  0  0  0  0  0  0  0  0  0  0  0
    6.4500    5.7001   -4.1675 H   0  0  0  0  0  0  0  0  0  0  0  0
    5.8310    0.6764   -2.0343 H   0  0  0  0  0  0  0  0  0  0  0  0
    3.6135    0.2816   -1.4892 H   0  0  0  0  0  0  0  0  0  0  0  0
  1  2  1  0  0  0  0
  1 27  1  0  0  0  0
  1 28  1  0  0  0  0
  1 29  1  0  0  0  0
  2  3  1  0  0  0  0
  2 26  1  0  0  0  0
  2 30  1  0  0  0  0
  3  4  2  0  0  0  0
  3  7  1  0  0  0  0
  4  5  2  0  0  0  0
  5  6  1  0  0  0  0
  5 31  1  0  0  0  0
  6 32  1  0  0  0  0
  6 33  1  0  0  0  0
  6 34  1  0  0  0  0
  7  8  2  0  0  0  0
  7 24  1  0  0  0  0
  8  9  1  0  0  0  0
  8 25  1  0  0  0  0
  9 10  1  0  0  0  0
  9 35  1  0  0  0  0
  9 36  1  0  0  0  0
 10 11  1  0  0  0  0
 10 37  1  0  0  0  0
 10 38  1  0  0  0  0
 11 12  1  0  0  0  0
 11 39  1  0  0  0  0
 11 40  1  0  0  0  0
 12 13  1  0  0  0  0
 12 41  1  0  0  0  0
 12 42  1  0  0  0  0
 13 14  1  0  0  0  0
 13 43  1  0  0  0  0
 13 44  1  0  0  0  0
 14 15  1  0  0  0  0
 14 45  1  0  0  0  0
 14 46  1  0  0  0  0
 15 16  1  0  0  0  0
 15 47  1  0  0  0  0
 16 17  1  0  0  0  0
 16 48  1  0  0  0  0
 16 49  1  0  0  0  0
 17 18  1  0  0  0  0
 17 50  1  0  0  0  0
 17 51  1  0  0  0  0
 18 19  1  0  0  0  0
 18 52  1  0  0  0  0
 18 53  1  0  0  0  0
 19 20  1  0  0  0  0
 19 54  1  0  0  0  0
 19 55  1  0  0  0  0
 20 21  1  0  0  0  0
 21 22  1  0  0  0  0
 22 23  1  0  0  0  0
 22 56  1  0  0  0  0
 22 57  1  0  0  0  0
 23 24  1  0  0  0  0
 23 58  1  0  0  0  0
 23 59  1  0  0  0  0
 24 60  1  0  0  0  0
 24 61  1  0  0  0  0
 25 26  2  0  0  0  0
 25 62  1  0  0  0  0
 26 63  1  0  0  0  0
M  END
$$$$
