
 OpenBabel04232216463D

 66 66  0  0  1  0  0  0  0  0999 V2000
    2.1853    1.3496    1.0329 C   0  0  0  0  0  0  0  0  0  0  0  0
    3.0680    0.6770    0.0101 C   0  0  0  0  0  0  0  0  0  0  0  0
    4.4785    0.4742   -0.0276 C   0  0  0  0  0  0  0  0  0  0  0  0
    4.3727   -0.1116   -1.2361 C   0  0  0  0  0  0  0  0  0  0  0  0
    5.3291   -0.6938   -2.2519 C   0  0  0  0  0  0  0  0  0  0  0  0
    6.8220   -0.6041   -1.9462 C   0  0  0  0  0  0  0  0  0  0  0  0
    7.6015   -1.2088   -3.1221 C   0  0  0  0  0  0  0  0  0  0  0  0
    9.1198   -1.1986   -2.9541 C   0  0  0  0  0  0  0  0  0  0  0  0
    9.8074   -1.8256   -4.1809 C   0  0  0  0  0  0  0  0  0  0  0  0
   11.3260   -1.8172   -4.0152 C   0  0  0  0  0  0  0  0  0  0  0  0
   12.0807   -2.4302   -5.2027 C   0  0  0  0  0  0  0  0  0  0  0  0
   13.5894   -2.3852   -4.9191 C   0  0  0  0  0  0  0  0  0  0  0  0
   14.4467   -2.9718   -6.0445 C   0  0  0  0  0  0  0  0  0  0  0  0
   15.9741   -2.8895   -5.7726 C   0  0  3  0  0  0  0  0  0  0  0  0
   16.3929   -3.6564   -4.4997 C   0  0  0  0  0  0  0  0  0  0  0  0
   17.8577   -3.5542   -4.1566 C   0  0  0  0  0  0  0  0  0  0  0  0
   18.6886   -4.6075   -4.0937 C   0  0  0  0  0  0  0  0  0  0  0  0
   20.1028   -4.5245   -3.5928 C   0  0  0  0  0  0  0  0  0  0  0  0
   21.1304   -4.9380   -4.6462 C   0  0  0  0  0  0  0  0  0  0  0  0
   22.5531   -4.8496   -4.0847 C   0  0  0  0  0  0  0  0  0  0  0  0
   23.5879   -5.2580   -5.1317 C   0  0  0  0  0  0  0  0  0  0  0  0
   25.0036   -5.1733   -4.5841 C   0  0  0  0  0  0  0  0  0  0  0  0
   16.7272   -3.4272   -6.9961 C   0  0  0  0  0  0  0  0  0  0  0  0
    2.9445    0.0392   -1.1667 C   0  0  0  0  0  0  0  0  0  0  0  0
    2.7794    1.8439    1.8029 H   0  0  0  0  0  0  0  0  0  0  0  0
    1.5299    0.6085    1.5033 H   0  0  0  0  0  0  0  0  0  0  0  0
    1.4885    2.0481    0.5525 H   0  0  0  0  0  0  0  0  0  0  0  0
    5.2899    0.7317    0.6411 H   0  0  0  0  0  0  0  0  0  0  0  0
    5.0992   -0.2323   -3.2222 H   0  0  0  0  0  0  0  0  0  0  0  0
    5.0320   -1.7378   -2.4257 H   0  0  0  0  0  0  0  0  0  0  0  0
    7.0583   -1.1404   -1.0178 H   0  0  0  0  0  0  0  0  0  0  0  0
    7.1225    0.4406   -1.7920 H   0  0  0  0  0  0  0  0  0  0  0  0
    7.3446   -0.6561   -4.0340 H   0  0  0  0  0  0  0  0  0  0  0  0
    7.2696   -2.2438   -3.2682 H   0  0  0  0  0  0  0  0  0  0  0  0
    9.3981   -1.7572   -2.0523 H   0  0  0  0  0  0  0  0  0  0  0  0
    9.4732   -0.1690   -2.8216 H   0  0  0  0  0  0  0  0  0  0  0  0
    9.5303   -1.2696   -5.0851 H   0  0  0  0  0  0  0  0  0  0  0  0
    9.4557   -2.8560   -4.3149 H   0  0  0  0  0  0  0  0  0  0  0  0
   11.5863   -2.3691   -3.1037 H   0  0  0  0  0  0  0  0  0  0  0  0
   11.6641   -0.7837   -3.8729 H   0  0  0  0  0  0  0  0  0  0  0  0
   11.8493   -1.8796   -6.1223 H   0  0  0  0  0  0  0  0  0  0  0  0
   11.7598   -3.4683   -5.3540 H   0  0  0  0  0  0  0  0  0  0  0  0
   13.7694   -2.9384   -3.9918 H   0  0  0  0  0  0  0  0  0  0  0  0
   13.8915   -1.3459   -4.7435 H   0  0  0  0  0  0  0  0  0  0  0  0
   14.2260   -2.4261   -6.9715 H   0  0  0  0  0  0  0  0  0  0  0  0
   14.1579   -4.0158   -6.2183 H   0  0  0  0  0  0  0  0  0  0  0  0
   16.2416   -1.8314   -5.6481 H   0  0  0  0  0  0  0  0  0  0  0  0
   16.0954   -4.7083   -4.5916 H   0  0  0  0  0  0  0  0  0  0  0  0
   15.8560   -3.2574   -3.6319 H   0  0  0  0  0  0  0  0  0  0  0  0
   18.2265   -2.5664   -3.8870 H   0  0  0  0  0  0  0  0  0  0  0  0
   18.3238   -5.5987   -4.3556 H   0  0  0  0  0  0  0  0  0  0  0  0
   20.1876   -5.1888   -2.7237 H   0  0  0  0  0  0  0  0  0  0  0  0
   20.3281   -3.5121   -3.2363 H   0  0  0  0  0  0  0  0  0  0  0  0
   21.0424   -4.2907   -5.5275 H   0  0  0  0  0  0  0  0  0  0  0  0
   20.9324   -5.9648   -4.9786 H   0  0  0  0  0  0  0  0  0  0  0  0
   22.6436   -5.4989   -3.2049 H   0  0  0  0  0  0  0  0  0  0  0  0
   22.7541   -3.8245   -3.7493 H   0  0  0  0  0  0  0  0  0  0  0  0
   23.5031   -4.6078   -6.0100 H   0  0  0  0  0  0  0  0  0  0  0  0
   23.3928   -6.2835   -5.4659 H   0  0  0  0  0  0  0  0  0  0  0  0
   25.2425   -4.1527   -4.2684 H   0  0  0  0  0  0  0  0  0  0  0  0
   25.7242   -5.4683   -5.3534 H   0  0  0  0  0  0  0  0  0  0  0  0
   25.1330   -5.8387   -3.7245 H   0  0  0  0  0  0  0  0  0  0  0  0
   16.4795   -4.4790   -7.1763 H   0  0  0  0  0  0  0  0  0  0  0  0
   17.8115   -3.3532   -6.8663 H   0  0  0  0  0  0  0  0  0  0  0  0
   16.4684   -2.8573   -7.8941 H   0  0  0  0  0  0  0  0  0  0  0  0
    2.1278   -0.2305   -1.8379 H   0  0  0  0  0  0  0  0  0  0  0  0
  1  2  1  0  0  0  0
  1 25  1  0  0  0  0
  1 26  1  0  0  0  0
  1 27  1  0  0  0  0
  2  3  1  0  0  0  0
  2 24  2  0  0  0  0
  3  4  2  0  0  0  0
  3 28  1  0  0  0  0
  4  5  1  0  0  0  0
  4 24  1  0  0  0  0
  5  6  1  0  0  0  0
  5 29  1  0  0  0  0
  5 30  1  0  0  0  0
  6  7  1  0  0  0  0
  6 31  1  0  0  0  0
  6 32  1  0  0  0  0
  7  8  1  0  0  0  0
  7 33  1  0  0  0  0
  7 34  1  0  0  0  0
  8  9  1  0  0  0  0
  8 35  1  0  0  0  0
  8 36  1  0  0  0  0
  9 10  1  0  0  0  0
  9 37  1  0  0  0  0
  9 38  1  0  0  0  0
 10 11  1  0  0  0  0
 10 39  1  0  0  0  0
 10 40  1  0  0  0  0
 11 12  1  0  0  0  0
 11 41  1  0  0  0  0
 11 42  1  0  0  0  0
 12 13  1  0  0  0  0
 12 43  1  0  0  0  0
 12 44  1  0  0  0  0
 13 14  1  0  0  0  0
 13 45  1  0  0  0  0
 13 46  1  0  0  0  0
 14 15  1  0  0  0  0
 14 23  1  0  0  0  0
 14 47  1  0  0  0  0
 15 16  1  0  0  0  0
 15 48  1  0  0  0  0
 15 49  1  0  0  0  0
 16 17  2  3  0  0  0
 16 50  1  0  0  0  0
 17 18  1  0  0  0  0
 17 51  1  0  0  0  0
 18 19  1  0  0  0  0
 18 52  1  0  0  0  0
 18 53  1  0  0  0  0
 19 20  1  0  0  0  0
 19 54  1  0  0  0  0
 19 55  1  0  0  0  0
 20 21  1  0  0  0  0
 20 56  1  0  0  0  0
 20 57  1  0  0  0  0
 21 22  1  0  0  0  0
 21 58  1  0  0  0  0
 21 59  1  0  0  0  0
 22 60  1  0  0  0  0
 22 61  1  0  0  0  0
 22 62  1  0  0  0  0
 23 63  1  0  0  0  0
 23 64  1  0  0  0  0
 23 65  1  0  0  0  0
 24 66  1  0  0  0  0
M  END
$$$$
