
 OpenBabel04232216433D

 58 59  0  0  0  0  0  0  0  0999 V2000
    1.4012    0.8928    0.8093 C   0  0  0  0  0  0  0  0  0  0  0  0
    2.7281    0.3201    0.3024 C   0  0  0  0  0  0  0  0  0  0  0  0
    3.0002   -0.8432   -0.6420 C   0  0  0  0  0  0  0  0  0  0  0  0
    4.2877   -1.1886   -0.9680 C   0  0  0  0  0  0  0  0  0  0  0  0
    4.9735   -2.1768   -1.7775 C   0  0  0  0  0  0  0  0  0  0  0  0
    4.7344   -3.1907   -2.6146 C   0  0  0  0  0  0  0  0  0  0  0  0
    3.4082   -3.7182   -3.0272 C   0  0  0  0  0  0  0  0  0  0  0  0
    2.8895   -3.0352   -4.2874 C   0  0  0  0  0  0  0  0  0  0  0  0
    1.5323   -3.6279   -4.6459 C   0  0  0  0  0  0  0  0  0  0  0  0
    0.9472   -2.9886   -5.8962 C   0  0  0  0  0  0  0  0  0  0  0  0
   -0.4068   -3.6142   -6.2134 C   0  0  0  0  0  0  0  0  0  0  0  0
   -1.0129   -2.9872   -7.4619 C   0  0  0  0  0  0  0  0  0  0  0  0
   -2.3663   -3.6151   -7.7757 C   0  0  0  0  0  0  0  0  0  0  0  0
   -2.9791   -2.9897   -9.0241 C   0  0  0  0  0  0  0  0  0  0  0  0
   -4.3269   -3.6138   -9.3383 C   0  0  0  0  0  0  0  0  0  0  0  0
    6.2409   -1.6437   -1.3520 C   0  0  0  0  0  0  0  0  0  0  0  0
    5.6182   -0.7094   -0.6316 C   0  0  0  0  0  0  0  0  0  0  0  0
    6.1723    0.3453    0.2388 C   0  0  0  0  0  0  0  0  0  0  0  0
    5.3665    1.2172    0.6584 N   0  0  0  0  0  0  0  0  0  0  0  0
    5.4402    2.1766    1.6334 C   0  0  0  0  0  0  0  0  0  0  0  0
    6.7110    2.6777    2.1936 C   0  0  0  0  0  0  0  0  0  0  0  0
    4.1940    2.5091    1.9616 C   0  0  0  0  0  0  0  0  0  0  0  0
    3.2286    3.2177    2.7085 C   0  0  0  0  0  0  0  0  0  0  0  0
    1.9128    2.9260    2.5242 C   0  0  0  0  0  0  0  0  0  0  0  0
    1.1604    1.9295    1.6770 C   0  0  0  0  0  0  0  0  0  0  0  0
    0.5192    0.4140    0.3855 H   0  0  0  0  0  0  0  0  0  0  0  0
    3.2584    0.0248    1.2143 H   0  0  0  0  0  0  0  0  0  0  0  0
    3.1504    1.1490   -0.2769 H   0  0  0  0  0  0  0  0  0  0  0  0
    2.1689   -1.3924   -1.0693 H   0  0  0  0  0  0  0  0  0  0  0  0
    5.6055   -3.7018   -3.0264 H   0  0  0  0  0  0  0  0  0  0  0  0
    2.6937   -3.5821   -2.2086 H   0  0  0  0  0  0  0  0  0  0  0  0
    3.4984   -4.7988   -3.2044 H   0  0  0  0  0  0  0  0  0  0  0  0
    3.5897   -3.1713   -5.1209 H   0  0  0  0  0  0  0  0  0  0  0  0
    2.7919   -1.9545   -4.1241 H   0  0  0  0  0  0  0  0  0  0  0  0
    0.8402   -3.4891   -3.8057 H   0  0  0  0  0  0  0  0  0  0  0  0
    1.6370   -4.7089   -4.8022 H   0  0  0  0  0  0  0  0  0  0  0  0
    1.6302   -3.1295   -6.7425 H   0  0  0  0  0  0  0  0  0  0  0  0
    0.8327   -1.9084   -5.7452 H   0  0  0  0  0  0  0  0  0  0  0  0
   -1.0858   -3.4776   -5.3624 H   0  0  0  0  0  0  0  0  0  0  0  0
   -0.2892   -4.6951   -6.3607 H   0  0  0  0  0  0  0  0  0  0  0  0
   -0.3328   -3.1260   -8.3110 H   0  0  0  0  0  0  0  0  0  0  0  0
   -1.1299   -1.9072   -7.3118 H   0  0  0  0  0  0  0  0  0  0  0  0
   -3.0423   -3.4791   -6.9226 H   0  0  0  0  0  0  0  0  0  0  0  0
   -2.2459   -4.6956   -7.9229 H   0  0  0  0  0  0  0  0  0  0  0  0
   -2.3060   -3.1272   -9.8785 H   0  0  0  0  0  0  0  0  0  0  0  0
   -3.1027   -1.9104   -8.8778 H   0  0  0  0  0  0  0  0  0  0  0  0
   -4.2263   -4.6893   -9.5156 H   0  0  0  0  0  0  0  0  0  0  0  0
   -4.7560   -3.1574  -10.2348 H   0  0  0  0  0  0  0  0  0  0  0  0
   -5.0270   -3.4663   -8.5098 H   0  0  0  0  0  0  0  0  0  0  0  0
    7.2738   -1.9048   -1.5526 H   0  0  0  0  0  0  0  0  0  0  0  0
    7.2467    0.2759    0.4885 H   0  0  0  0  0  0  0  0  0  0  0  0
    7.5700    2.1340    1.7887 H   0  0  0  0  0  0  0  0  0  0  0  0
    6.7337    2.5712    3.2818 H   0  0  0  0  0  0  0  0  0  0  0  0
    6.8379    3.7318    1.9290 H   0  0  0  0  0  0  0  0  0  0  0  0
    3.5501    2.0057    1.2945 H   0  0  0  0  0  0  0  0  0  0  0  0
    3.5568    3.9981    3.3893 H   0  0  0  0  0  0  0  0  0  0  0  0
    1.2303    3.5570    3.1029 H   0  0  0  0  0  0  0  0  0  0  0  0
    0.0931    2.1266    1.8282 H   0  0  0  0  0  0  0  0  0  0  0  0
  1  2  1  0  0  0  0
  1 25  2  3  0  0  0
  1 26  1  0  0  0  0
  2  3  1  0  0  0  0
  2 27  1  0  0  0  0
  2 28  1  0  0  0  0
  3  4  2  3  0  0  0
  3 29  1  0  0  0  0
  4  5  1  0  0  0  0
  4 17  1  0  0  0  0
  5  6  2  3  0  0  0
  5 16  1  0  0  0  0
  6  7  1  0  0  0  0
  6 30  1  0  0  0  0
  7  8  1  0  0  0  0
  7 31  1  0  0  0  0
  7 32  1  0  0  0  0
  8  9  1  0  0  0  0
  8 33  1  0  0  0  0
  8 34  1  0  0  0  0
  9 10  1  0  0  0  0
  9 35  1  0  0  0  0
  9 36  1  0  0  0  0
 10 11  1  0  0  0  0
 10 37  1  0  0  0  0
 10 38  1  0  0  0  0
 11 12  1  0  0  0  0
 11 39  1  0  0  0  0
 11 40  1  0  0  0  0
 12 13  1  0  0  0  0
 12 41  1  0  0  0  0
 12 42  1  0  0  0  0
 13 14  1  0  0  0  0
 13 43  1  0  0  0  0
 13 44  1  0  0  0  0
 14 15  1  0  0  0  0
 14 45  1  0  0  0  0
 14 46  1  0  0  0  0
 15 47  1  0  0  0  0
 15 48  1  0  0  0  0
 15 49  1  0  0  0  0
 16 17  2  0  0  0  0
 16 50  1  0  0  0  0
 17 18  1  0  0  0  0
 18 19  2  3  0  0  0
 18 51  1  0  0  0  0
 19 20  1  0  0  0  0
 20 21  1  0  0  0  0
 20 22  2  3  0  0  0
 21 52  1  0  0  0  0
 21 53  1  0  0  0  0
 21 54  1  0  0  0  0
 22 23  1  0  0  0  0
 22 55  1  0  0  0  0
 23 24  2  3  0  0  0
 23 56  1  0  0  0  0
 24 25  1  0  0  0  0
 24 57  1  0  0  0  0
 25 58  1  0  0  0  0
M  END
$$$$
