
 OpenBabel04232216573D

244243  0  0  0  0  0  0  0  0999 V2000
    1.0320    0.0717    0.0051 N   0  0  0  0  0  0  0  0  0  0  0  0
    2.4856    0.0760   -0.0120 C   0  0  0  0  0  0  0  0  0  0  0  0
    3.0060   -1.3508    0.0983 C   0  0  0  0  0  0  0  0  0  0  0  0
    4.5301   -1.3636    0.0833 C   0  0  0  0  0  0  0  0  0  0  0  0
    5.0485   -2.7886    0.1934 C   0  0  0  0  0  0  0  0  0  0  0  0
    6.5680   -2.7979    0.1787 C   0  0  0  0  0  0  0  0  0  0  0  0
    7.0807   -4.2225    0.2866 C   0  0  0  0  0  0  0  0  0  0  0  0
    8.5981   -4.2316    0.2692 C   0  0  0  0  0  0  0  0  0  0  0  0
    9.1100   -5.6563    0.3773 C   0  0  0  0  0  0  0  0  0  0  0  0
   10.6272   -5.6610    0.3610 C   0  0  0  0  0  0  0  0  0  0  0  0
   11.1380   -7.0845    0.4724 C   0  0  0  0  0  0  0  0  0  0  0  0
   12.6543   -7.0919    0.4588 C   0  0  0  0  0  0  0  0  0  0  0  0
   13.1637   -8.5169    0.5672 C   0  0  0  0  0  0  0  0  0  0  0  0
   14.6805   -8.5218    0.5554 C   0  0  0  0  0  0  0  0  0  0  0  0
   15.1907   -9.9460    0.6638 C   0  0  0  0  0  0  0  0  0  0  0  0
   16.7076   -9.9517    0.6501 C   0  0  0  0  0  0  0  0  0  0  0  0
   17.2176  -11.3762    0.7565 C   0  0  0  0  0  0  0  0  0  0  0  0
   18.7341  -11.3818    0.7449 C   0  0  0  0  0  0  0  0  0  0  0  0
   19.2442  -12.8063    0.8492 C   0  0  0  0  0  0  0  0  0  0  0  0
   20.7608  -12.8117    0.8396 C   0  0  0  0  0  0  0  0  0  0  0  0
   21.2708  -14.2364    0.9420 C   0  0  0  0  0  0  0  0  0  0  0  0
   22.7875  -14.2417    0.9343 C   0  0  0  0  0  0  0  0  0  0  0  0
   23.2975  -15.6665    1.0347 C   0  0  0  0  0  0  0  0  0  0  0  0
   24.8141  -15.6716    1.0291 C   0  0  0  0  0  0  0  0  0  0  0  0
   25.3241  -17.0965    1.1295 C   0  0  0  0  0  0  0  0  0  0  0  0
   26.8408  -17.1014    1.1258 C   0  0  0  0  0  0  0  0  0  0  0  0
   27.3507  -18.5263    1.2262 C   0  0  0  0  0  0  0  0  0  0  0  0
   28.8674  -18.5312    1.2226 C   0  0  0  0  0  0  0  0  0  0  0  0
   29.3774  -19.9561    1.3230 C   0  0  0  0  0  0  0  0  0  0  0  0
   30.8941  -19.9610    1.3194 C   0  0  0  0  0  0  0  0  0  0  0  0
   31.4041  -21.3859    1.4198 C   0  0  0  0  0  0  0  0  0  0  0  0
   32.9207  -21.3909    1.4161 C   0  0  0  0  0  0  0  0  0  0  0  0
   33.4307  -22.8157    1.5165 C   0  0  0  0  0  0  0  0  0  0  0  0
   34.9474  -22.8205    1.5149 C   0  0  0  0  0  0  0  0  0  0  0  0
   35.4574  -24.2454    1.6153 C   0  0  0  0  0  0  0  0  0  0  0  0
   36.9740  -24.2504    1.6117 C   0  0  0  0  0  0  0  0  0  0  0  0
   37.4840  -25.6751    1.7141 C   0  0  0  0  0  0  0  0  0  0  0  0
   39.0007  -25.6799    1.7124 C   0  0  0  0  0  0  0  0  0  0  0  0
   39.5107  -27.1047    1.8129 C   0  0  0  0  0  0  0  0  0  0  0  0
   41.0274  -27.1094    1.8132 C   0  0  0  0  0  0  0  0  0  0  0  0
   41.5373  -28.5344    1.9116 C   0  0  0  0  0  0  0  0  0  0  0  0
   43.0540  -28.5391    1.9120 C   0  0  0  0  0  0  0  0  0  0  0  0
   43.5640  -29.9641    2.0104 C   0  0  0  0  0  0  0  0  0  0  0  0
   45.0807  -29.9687    2.0108 C   0  0  0  0  0  0  0  0  0  0  0  0
   45.5907  -31.3937    2.1092 C   0  0  0  0  0  0  0  0  0  0  0  0
   47.1074  -31.3984    2.1095 C   0  0  0  0  0  0  0  0  0  0  0  0
   47.6173  -32.8234    2.2079 C   0  0  0  0  0  0  0  0  0  0  0  0
   49.1340  -32.8280    2.2083 C   0  0  0  0  0  0  0  0  0  0  0  0
   49.6440  -34.2531    2.3067 C   0  0  0  0  0  0  0  0  0  0  0  0
   51.1607  -34.2576    2.3091 C   0  0  0  0  0  0  0  0  0  0  0  0
   51.6706  -35.6826    2.4075 C   0  0  0  0  0  0  0  0  0  0  0  0
   53.1873  -35.6872    2.4079 C   0  0  0  0  0  0  0  0  0  0  0  0
   53.6973  -37.1121    2.5083 C   0  0  0  0  0  0  0  0  0  0  0  0
   55.2140  -37.1169    2.5067 C   0  0  0  0  0  0  0  0  0  0  0  0
   55.7240  -38.5419    2.6050 C   0  0  0  0  0  0  0  0  0  0  0  0
   57.2407  -38.5466    2.6054 C   0  0  0  0  0  0  0  0  0  0  0  0
   57.7506  -39.9717    2.7018 C   0  0  0  0  0  0  0  0  0  0  0  0
   59.2673  -39.9762    2.7042 C   0  0  0  0  0  0  0  0  0  0  0  0
   59.7773  -41.4014    2.8006 C   0  0  0  0  0  0  0  0  0  0  0  0
   61.2940  -41.4058    2.8050 C   0  0  0  0  0  0  0  0  0  0  0  0
   61.8039  -42.8309    2.9014 C   0  0  0  0  0  0  0  0  0  0  0  0
   63.3206  -42.8354    2.9058 C   0  0  0  0  0  0  0  0  0  0  0  0
   63.8306  -44.2604    3.0021 C   0  0  0  0  0  0  0  0  0  0  0  0
   65.3472  -44.2649    3.0066 C   0  0  0  0  0  0  0  0  0  0  0  0
   65.8573  -45.6899    3.1029 C   0  0  0  0  0  0  0  0  0  0  0  0
   67.3739  -45.6944    3.1074 C   0  0  0  0  0  0  0  0  0  0  0  0
   67.8839  -47.1195    3.2037 C   0  0  0  0  0  0  0  0  0  0  0  0
   69.4006  -47.1240    3.2082 C   0  0  0  0  0  0  0  0  0  0  0  0
   69.9106  -48.5491    3.3045 C   0  0  0  0  0  0  0  0  0  0  0  0
   71.4274  -48.5537    3.3069 C   0  0  0  0  0  0  0  0  0  0  0  0
   71.9375  -49.9789    3.4032 C   0  0  0  0  0  0  0  0  0  0  0  0
   73.4543  -49.9837    3.4057 C   0  0  0  0  0  0  0  0  0  0  0  0
   73.9646  -51.4088    3.5021 C   0  0  0  0  0  0  0  0  0  0  0  0
   75.4816  -51.4137    3.5045 C   0  0  0  0  0  0  0  0  0  0  0  0
   75.9926  -52.8395    3.6009 C   0  0  0  0  0  0  0  0  0  0  0  0
   77.5106  -52.8462    3.6015 C   0  0  0  0  0  0  0  0  0  0  0  0
   78.0265  -54.2707    3.6978 C   0  0  0  0  0  0  0  0  0  0  0  0
   79.5441  -54.2779    3.6983 C   0  0  0  0  0  0  0  0  0  0  0  0
   80.0620  -55.7037    3.7928 C   0  0  0  0  0  0  0  0  0  0  0  0
   81.5828  -55.7270    3.7924 C   0  0  0  0  0  0  0  0  0  0  0  0
   82.0953  -57.1526    3.8867 C   0  0  0  0  0  0  0  0  0  0  0  0
    0.6893    1.0341   -0.0235 H   0  0  0  0  0  0  0  0  0  0  0  0
    0.7017   -0.3216    0.8864 H   0  0  0  0  0  0  0  0  0  0  0  0
    2.8636    0.6804    0.8201 H   0  0  0  0  0  0  0  0  0  0  0  0
    2.8369    0.5328   -0.9437 H   0  0  0  0  0  0  0  0  0  0  0  0
    2.6281   -1.9563   -0.7352 H   0  0  0  0  0  0  0  0  0  0  0  0
    2.6473   -1.8159    1.0251 H   0  0  0  0  0  0  0  0  0  0  0  0
    4.9176   -0.7639    0.9160 H   0  0  0  0  0  0  0  0  0  0  0  0
    4.8990   -0.9070   -0.8438 H   0  0  0  0  0  0  0  0  0  0  0  0
    4.6663   -3.3913   -0.6396 H   0  0  0  0  0  0  0  0  0  0  0  0
    4.6844   -3.2488    1.1204 H   0  0  0  0  0  0  0  0  0  0  0  0
    6.9542   -2.1998    1.0130 H   0  0  0  0  0  0  0  0  0  0  0  0
    6.9362   -2.3392   -0.7474 H   0  0  0  0  0  0  0  0  0  0  0  0
    6.6959   -4.8239   -0.5468 H   0  0  0  0  0  0  0  0  0  0  0  0
    6.7150   -4.6825    1.2131 H   0  0  0  0  0  0  0  0  0  0  0  0
    8.9861   -3.6323    1.1018 H   0  0  0  0  0  0  0  0  0  0  0  0
    8.9646   -3.7740   -0.6583 H   0  0  0  0  0  0  0  0  0  0  0  0
    8.7253   -6.2566   -0.4565 H   0  0  0  0  0  0  0  0  0  0  0  0
    8.7447   -6.1155    1.3040 H   0  0  0  0  0  0  0  0  0  0  0  0
   11.0124   -5.0587    1.1933 H   0  0  0  0  0  0  0  0  0  0  0  0
   10.9929   -5.2038   -0.5667 H   0  0  0  0  0  0  0  0  0  0  0  0
   10.7542   -7.6854   -0.3621 H   0  0  0  0  0  0  0  0  0  0  0  0
   10.7693   -7.5439    1.3975 H   0  0  0  0  0  0  0  0  0  0  0  0
   13.0380   -6.4925    1.2939 H   0  0  0  0  0  0  0  0  0  0  0  0
   13.0223   -6.6324   -0.4667 H   0  0  0  0  0  0  0  0  0  0  0  0
   12.7810   -9.1158   -0.2684 H   0  0  0  0  0  0  0  0  0  0  0  0
   12.7952   -8.9765    1.4924 H   0  0  0  0  0  0  0  0  0  0  0  0
   15.0634   -7.9229    1.3908 H   0  0  0  0  0  0  0  0  0  0  0  0
   15.0492   -8.0619   -0.3697 H   0  0  0  0  0  0  0  0  0  0  0  0
   14.8071  -10.5456   -0.1709 H   0  0  0  0  0  0  0  0  0  0  0  0
   14.8234  -10.4058    1.5895 H   0  0  0  0  0  0  0  0  0  0  0  0
   17.0914   -9.3535    1.4857 H   0  0  0  0  0  0  0  0  0  0  0  0
   17.0751   -9.4910   -0.2750 H   0  0  0  0  0  0  0  0  0  0  0  0
   16.8347  -11.9740   -0.0798 H   0  0  0  0  0  0  0  0  0  0  0  0
   16.8489  -11.8375    1.6810 H   0  0  0  0  0  0  0  0  0  0  0  0
   19.1169  -10.7850    1.5820 H   0  0  0  0  0  0  0  0  0  0  0  0
   19.1029  -10.9192   -0.1789 H   0  0  0  0  0  0  0  0  0  0  0  0
   18.8626  -13.4026    0.0113 H   0  0  0  0  0  0  0  0  0  0  0  0
   18.8743  -13.2694    1.7723 H   0  0  0  0  0  0  0  0  0  0  0  0
   21.1424  -12.2165    1.6784 H   0  0  0  0  0  0  0  0  0  0  0  0
   21.1308  -12.3474   -0.0828 H   0  0  0  0  0  0  0  0  0  0  0  0
   20.8903  -14.8312    0.1025 H   0  0  0  0  0  0  0  0  0  0  0  0
   20.8998  -14.7013    1.8638 H   0  0  0  0  0  0  0  0  0  0  0  0
   23.1679  -13.6480    1.7747 H   0  0  0  0  0  0  0  0  0  0  0  0
   23.1586  -13.7756    0.0132 H   0  0  0  0  0  0  0  0  0  0  0  0
   22.9181  -16.2598    0.1936 H   0  0  0  0  0  0  0  0  0  0  0  0
   22.9252  -16.1331    1.9551 H   0  0  0  0  0  0  0  0  0  0  0  0
   25.1934  -15.0783    1.8702 H   0  0  0  0  0  0  0  0  0  0  0  0
   25.1864  -15.2051    0.1087 H   0  0  0  0  0  0  0  0  0  0  0  0
   24.9459  -17.6894    0.2876 H   0  0  0  0  0  0  0  0  0  0  0  0
   24.9507  -17.5635    2.0492 H   0  0  0  0  0  0  0  0  0  0  0  0
   27.2189  -16.5085    1.9678 H   0  0  0  0  0  0  0  0  0  0  0  0
   27.2142  -16.6344    0.2061 H   0  0  0  0  0  0  0  0  0  0  0  0
   26.9726  -19.1192    0.3843 H   0  0  0  0  0  0  0  0  0  0  0  0
   26.9773  -18.9933    2.1459 H   0  0  0  0  0  0  0  0  0  0  0  0
   29.2455  -17.9383    2.0645 H   0  0  0  0  0  0  0  0  0  0  0  0
   29.2408  -18.0642    0.3029 H   0  0  0  0  0  0  0  0  0  0  0  0
   28.9993  -20.5490    0.4811 H   0  0  0  0  0  0  0  0  0  0  0  0
   29.0040  -20.4231    2.2427 H   0  0  0  0  0  0  0  0  0  0  0  0
   31.2722  -19.3681    2.1613 H   0  0  0  0  0  0  0  0  0  0  0  0
   31.2675  -19.4940    0.3997 H   0  0  0  0  0  0  0  0  0  0  0  0
   31.0259  -21.9788    0.5778 H   0  0  0  0  0  0  0  0  0  0  0  0
   31.0306  -21.8529    2.3394 H   0  0  0  0  0  0  0  0  0  0  0  0
   33.2988  -20.7979    2.2581 H   0  0  0  0  0  0  0  0  0  0  0  0
   33.2942  -20.9238    0.4964 H   0  0  0  0  0  0  0  0  0  0  0  0
   33.0537  -23.4083    0.6738 H   0  0  0  0  0  0  0  0  0  0  0  0
   33.0562  -23.2833    2.4355 H   0  0  0  0  0  0  0  0  0  0  0  0
   35.3244  -22.2280    2.3576 H   0  0  0  0  0  0  0  0  0  0  0  0
   35.3219  -22.3530    0.5959 H   0  0  0  0  0  0  0  0  0  0  0  0
   35.0793  -24.8384    0.7734 H   0  0  0  0  0  0  0  0  0  0  0  0
   35.0839  -24.7124    2.5350 H   0  0  0  0  0  0  0  0  0  0  0  0
   37.3521  -23.6563    2.4528 H   0  0  0  0  0  0  0  0  0  0  0  0
   37.3475  -23.7846    0.6913 H   0  0  0  0  0  0  0  0  0  0  0  0
   37.1070  -26.2688    0.8722 H   0  0  0  0  0  0  0  0  0  0  0  0
   37.1095  -26.1413    2.6337 H   0  0  0  0  0  0  0  0  0  0  0  0
   39.3776  -25.0873    2.5551 H   0  0  0  0  0  0  0  0  0  0  0  0
   39.3753  -25.2124    0.7935 H   0  0  0  0  0  0  0  0  0  0  0  0
   39.1349  -27.6969    0.9694 H   0  0  0  0  0  0  0  0  0  0  0  0
   39.1350  -27.5727    2.7311 H   0  0  0  0  0  0  0  0  0  0  0  0
   41.4031  -26.5184    2.6575 H   0  0  0  0  0  0  0  0  0  0  0  0
   41.4032  -26.6401    0.8956 H   0  0  0  0  0  0  0  0  0  0  0  0
   41.1616  -29.1254    1.0673 H   0  0  0  0  0  0  0  0  0  0  0  0
   41.1616  -29.0037    2.8292 H   0  0  0  0  0  0  0  0  0  0  0  0
   43.4298  -27.9481    2.7563 H   0  0  0  0  0  0  0  0  0  0  0  0
   43.4298  -28.0698    0.9944 H   0  0  0  0  0  0  0  0  0  0  0  0
   43.1882  -30.5551    1.1661 H   0  0  0  0  0  0  0  0  0  0  0  0
   43.1882  -30.4333    2.9280 H   0  0  0  0  0  0  0  0  0  0  0  0
   45.4565  -29.3777    2.8551 H   0  0  0  0  0  0  0  0  0  0  0  0
   45.4565  -29.4994    1.0932 H   0  0  0  0  0  0  0  0  0  0  0  0
   45.2149  -31.9847    1.2648 H   0  0  0  0  0  0  0  0  0  0  0  0
   45.2149  -31.8630    3.0267 H   0  0  0  0  0  0  0  0  0  0  0  0
   47.4831  -30.8074    2.9539 H   0  0  0  0  0  0  0  0  0  0  0  0
   47.4831  -30.9291    1.1920 H   0  0  0  0  0  0  0  0  0  0  0  0
   47.2416  -33.4144    1.3636 H   0  0  0  0  0  0  0  0  0  0  0  0
   47.2416  -33.2927    3.1255 H   0  0  0  0  0  0  0  0  0  0  0  0
   49.5097  -32.2370    3.0526 H   0  0  0  0  0  0  0  0  0  0  0  0
   49.5098  -32.3588    1.2907 H   0  0  0  0  0  0  0  0  0  0  0  0
   49.2694  -34.8437    1.4616 H   0  0  0  0  0  0  0  0  0  0  0  0
   49.2671  -34.7228    3.2236 H   0  0  0  0  0  0  0  0  0  0  0  0
   51.5353  -33.6670    3.1542 H   0  0  0  0  0  0  0  0  0  0  0  0
   51.5376  -33.7878    1.3922 H   0  0  0  0  0  0  0  0  0  0  0  0
   51.2949  -36.2736    1.5632 H   0  0  0  0  0  0  0  0  0  0  0  0
   51.2948  -36.1518    3.3251 H   0  0  0  0  0  0  0  0  0  0  0  0
   53.5632  -35.0951    3.2514 H   0  0  0  0  0  0  0  0  0  0  0  0
   53.5630  -35.2192    1.4896 H   0  0  0  0  0  0  0  0  0  0  0  0
   53.3204  -37.7046    1.6655 H   0  0  0  0  0  0  0  0  0  0  0  0
   53.3227  -37.5796    3.4272 H   0  0  0  0  0  0  0  0  0  0  0  0
   55.5909  -36.5255    3.3502 H   0  0  0  0  0  0  0  0  0  0  0  0
   55.5886  -36.6481    1.5884 H   0  0  0  0  0  0  0  0  0  0  0  0
   55.3482  -39.1329    1.7607 H   0  0  0  0  0  0  0  0  0  0  0  0
   55.3482  -39.0112    3.5226 H   0  0  0  0  0  0  0  0  0  0  0  0
   57.6164  -37.9567    3.4506 H   0  0  0  0  0  0  0  0  0  0  0  0
   57.6165  -38.0760    1.6885 H   0  0  0  0  0  0  0  0  0  0  0  0
   57.3760  -40.5611    1.8559 H   0  0  0  0  0  0  0  0  0  0  0  0
   57.3737  -40.4428    3.6180 H   0  0  0  0  0  0  0  0  0  0  0  0
   59.6419  -39.3868    3.5501 H   0  0  0  0  0  0  0  0  0  0  0  0
   59.6443  -39.5052    1.7880 H   0  0  0  0  0  0  0  0  0  0  0  0
   59.4038  -41.9904    1.9539 H   0  0  0  0  0  0  0  0  0  0  0  0
   59.3992  -41.8729    3.7160 H   0  0  0  0  0  0  0  0  0  0  0  0
   61.6674  -40.8167    3.6517 H   0  0  0  0  0  0  0  0  0  0  0  0
   61.6721  -40.9342    1.8895 H   0  0  0  0  0  0  0  0  0  0  0  0
   61.4306  -43.4200    2.0546 H   0  0  0  0  0  0  0  0  0  0  0  0
   61.4258  -43.3024    3.8168 H   0  0  0  0  0  0  0  0  0  0  0  0
   63.6940  -42.2463    3.7526 H   0  0  0  0  0  0  0  0  0  0  0  0
   63.6988  -42.3637    1.9904 H   0  0  0  0  0  0  0  0  0  0  0  0
   63.4572  -44.8494    2.1553 H   0  0  0  0  0  0  0  0  0  0  0  0
   63.4524  -44.7321    3.9175 H   0  0  0  0  0  0  0  0  0  0  0  0
   65.7206  -43.6758    3.8534 H   0  0  0  0  0  0  0  0  0  0  0  0
   65.7254  -43.7933    2.0912 H   0  0  0  0  0  0  0  0  0  0  0  0
   65.4839  -46.2790    2.2561 H   0  0  0  0  0  0  0  0  0  0  0  0
   65.4791  -46.1615    4.0183 H   0  0  0  0  0  0  0  0  0  0  0  0
   67.7472  -45.1054    3.9542 H   0  0  0  0  0  0  0  0  0  0  0  0
   67.7521  -45.2228    2.1920 H   0  0  0  0  0  0  0  0  0  0  0  0
   67.5105  -47.7085    2.3569 H   0  0  0  0  0  0  0  0  0  0  0  0
   67.5057  -47.5911    4.1191 H   0  0  0  0  0  0  0  0  0  0  0  0
   69.7739  -46.5350    4.0549 H   0  0  0  0  0  0  0  0  0  0  0  0
   69.7787  -46.6523    2.2927 H   0  0  0  0  0  0  0  0  0  0  0  0
   69.5361  -49.1384    2.4584 H   0  0  0  0  0  0  0  0  0  0  0  0
   69.5335  -49.0202    4.2205 H   0  0  0  0  0  0  0  0  0  0  0  0
   71.8018  -47.9643    4.1530 H   0  0  0  0  0  0  0  0  0  0  0  0
   71.8043  -48.0825    2.3908 H   0  0  0  0  0  0  0  0  0  0  0  0
   71.5629  -50.5682    2.5572 H   0  0  0  0  0  0  0  0  0  0  0  0
   71.5605  -50.4501    4.3192 H   0  0  0  0  0  0  0  0  0  0  0  0
   73.8287  -49.3942    4.2518 H   0  0  0  0  0  0  0  0  0  0  0  0
   73.8312  -49.5124    2.4896 H   0  0  0  0  0  0  0  0  0  0  0  0
   73.5899  -51.9982    2.6561 H   0  0  0  0  0  0  0  0  0  0  0  0
   73.5875  -51.8799    4.4182 H   0  0  0  0  0  0  0  0  0  0  0  0
   75.8559  -50.8242    4.3505 H   0  0  0  0  0  0  0  0  0  0  0  0
   75.8583  -50.9424    2.5884 H   0  0  0  0  0  0  0  0  0  0  0  0
   75.6166  -53.4288    2.7556 H   0  0  0  0  0  0  0  0  0  0  0  0
   75.6164  -53.3097    4.5177 H   0  0  0  0  0  0  0  0  0  0  0  0
   77.8852  -52.2550    4.4465 H   0  0  0  0  0  0  0  0  0  0  0  0
   77.8853  -52.3740    2.6847 H   0  0  0  0  0  0  0  0  0  0  0  0
   77.6470  -54.8598    2.8527 H   0  0  0  0  0  0  0  0  0  0  0  0
   77.6469  -54.7409    4.6143 H   0  0  0  0  0  0  0  0  0  0  0  0
   79.9180  -53.6889    4.5441 H   0  0  0  0  0  0  0  0  0  0  0  0
   79.9181  -53.8055    2.7823 H   0  0  0  0  0  0  0  0  0  0  0  0
   79.6785  -56.2922    2.9480 H   0  0  0  0  0  0  0  0  0  0  0  0
   79.6806  -56.1748    4.7089 H   0  0  0  0  0  0  0  0  0  0  0  0
   81.9640  -55.1434    4.6377 H   0  0  0  0  0  0  0  0  0  0  0  0
   81.9618  -55.2608    2.8761 H   0  0  0  0  0  0  0  0  0  0  0  0
   81.7452  -57.6296    4.8078 H   0  0  0  0  0  0  0  0  0  0  0  0
   83.1888  -57.1649    3.8862 H   0  0  0  0  0  0  0  0  0  0  0  0
   81.7430  -57.7475    3.0379 H   0  0  0  0  0  0  0  0  0  0  0  0
  1  2  1  0  0  0  0
  1 82  1  0  0  0  0
  1 83  1  0  0  0  0
  2  3  1  0  0  0  0
  2 84  1  0  0  0  0
  2 85  1  0  0  0  0
  3  4  1  0  0  0  0
  3 86  1  0  0  0  0
  3 87  1  0  0  0  0
  4  5  1  0  0  0  0
  4 88  1  0  0  0  0
  4 89  1  0  0  0  0
  5  6  1  0  0  0  0
  5 90  1  0  0  0  0
  5 91  1  0  0  0  0
  6  7  1  0  0  0  0
  6 92  1  0  0  0  0
  6 93  1  0  0  0  0
  7  8  1  0  0  0  0
  7 94  1  0  0  0  0
  7 95  1  0  0  0  0
  8  9  1  0  0  0  0
  8 96  1  0  0  0  0
  8 97  1  0  0  0  0
  9 10  1  0  0  0  0
  9 98  1  0  0  0  0
  9 99  1  0  0  0  0
 10 11  1  0  0  0  0
 10100  1  0  0  0  0
 10101  1  0  0  0  0
 11 12  1  0  0  0  0
 11102  1  0  0  0  0
 11103  1  0  0  0  0
 12 13  1  0  0  0  0
 12104  1  0  0  0  0
 12105  1  0  0  0  0
 13 14  1  0  0  0  0
 13106  1  0  0  0  0
 13107  1  0  0  0  0
 14 15  1  0  0  0  0
 14108  1  0  0  0  0
 14109  1  0  0  0  0
 15 16  1  0  0  0  0
 15110  1  0  0  0  0
 15111  1  0  0  0  0
 16 17  1  0  0  0  0
 16112  1  0  0  0  0
 16113  1  0  0  0  0
 17 18  1  0  0  0  0
 17114  1  0  0  0  0
 17115  1  0  0  0  0
 18 19  1  0  0  0  0
 18116  1  0  0  0  0
 18117  1  0  0  0  0
 19 20  1  0  0  0  0
 19118  1  0  0  0  0
 19119  1  0  0  0  0
 20 21  1  0  0  0  0
 20120  1  0  0  0  0
 20121  1  0  0  0  0
 21 22  1  0  0  0  0
 21122  1  0  0  0  0
 21123  1  0  0  0  0
 22 23  1  0  0  0  0
 22124  1  0  0  0  0
 22125  1  0  0  0  0
 23 24  1  0  0  0  0
 23126  1  0  0  0  0
 23127  1  0  0  0  0
 24 25  1  0  0  0  0
 24128  1  0  0  0  0
 24129  1  0  0  0  0
 25 26  1  0  0  0  0
 25130  1  0  0  0  0
 25131  1  0  0  0  0
 26 27  1  0  0  0  0
 26132  1  0  0  0  0
 26133  1  0  0  0  0
 27 28  1  0  0  0  0
 27134  1  0  0  0  0
 27135  1  0  0  0  0
 28 29  1  0  0  0  0
 28136  1  0  0  0  0
 28137  1  0  0  0  0
 29 30  1  0  0  0  0
 29138  1  0  0  0  0
 29139  1  0  0  0  0
 30 31  1  0  0  0  0
 30140  1  0  0  0  0
 30141  1  0  0  0  0
 31 32  1  0  0  0  0
 31142  1  0  0  0  0
 31143  1  0  0  0  0
 32 33  1  0  0  0  0
 32144  1  0  0  0  0
 32145  1  0  0  0  0
 33 34  1  0  0  0  0
 33146  1  0  0  0  0
 33147  1  0  0  0  0
 34 35  1  0  0  0  0
 34148  1  0  0  0  0
 34149  1  0  0  0  0
 35 36  1  0  0  0  0
 35150  1  0  0  0  0
 35151  1  0  0  0  0
 36 37  1  0  0  0  0
 36152  1  0  0  0  0
 36153  1  0  0  0  0
 37 38  1  0  0  0  0
 37154  1  0  0  0  0
 37155  1  0  0  0  0
 38 39  1  0  0  0  0
 38156  1  0  0  0  0
 38157  1  0  0  0  0
 39 40  1  0  0  0  0
 39158  1  0  0  0  0
 39159  1  0  0  0  0
 40 41  1  0  0  0  0
 40160  1  0  0  0  0
 40161  1  0  0  0  0
 41 42  1  0  0  0  0
 41162  1  0  0  0  0
 41163  1  0  0  0  0
 42 43  1  0  0  0  0
 42164  1  0  0  0  0
 42165  1  0  0  0  0
 43 44  1  0  0  0  0
 43166  1  0  0  0  0
 43167  1  0  0  0  0
 44 45  1  0  0  0  0
 44168  1  0  0  0  0
 44169  1  0  0  0  0
 45 46  1  0  0  0  0
 45170  1  0  0  0  0
 45171  1  0  0  0  0
 46 47  1  0  0  0  0
 46172  1  0  0  0  0
 46173  1  0  0  0  0
 47 48  1  0  0  0  0
 47174  1  0  0  0  0
 47175  1  0  0  0  0
 48 49  1  0  0  0  0
 48176  1  0  0  0  0
 48177  1  0  0  0  0
 49 50  1  0  0  0  0
 49178  1  0  0  0  0
 49179  1  0  0  0  0
 50 51  1  0  0  0  0
 50180  1  0  0  0  0
 50181  1  0  0  0  0
 51 52  1  0  0  0  0
 51182  1  0  0  0  0
 51183  1  0  0  0  0
 52 53  1  0  0  0  0
 52184  1  0  0  0  0
 52185  1  0  0  0  0
 53 54  1  0  0  0  0
 53186  1  0  0  0  0
 53187  1  0  0  0  0
 54 55  1  0  0  0  0
 54188  1  0  0  0  0
 54189  1  0  0  0  0
 55 56  1  0  0  0  0
 55190  1  0  0  0  0
 55191  1  0  0  0  0
 56 57  1  0  0  0  0
 56192  1  0  0  0  0
 56193  1  0  0  0  0
 57 58  1  0  0  0  0
 57194  1  0  0  0  0
 57195  1  0  0  0  0
 58 59  1  0  0  0  0
 58196  1  0  0  0  0
 58197  1  0  0  0  0
 59 60  1  0  0  0  0
 59198  1  0  0  0  0
 59199  1  0  0  0  0
 60 61  1  0  0  0  0
 60200  1  0  0  0  0
 60201  1  0  0  0  0
 61 62  1  0  0  0  0
 61202  1  0  0  0  0
 61203  1  0  0  0  0
 62 63  1  0  0  0  0
 62204  1  0  0  0  0
 62205  1  0  0  0  0
 63 64  1  0  0  0  0
 63206  1  0  0  0  0
 63207  1  0  0  0  0
 64 65  1  0  0  0  0
 64208  1  0  0  0  0
 64209  1  0  0  0  0
 65 66  1  0  0  0  0
 65210  1  0  0  0  0
 65211  1  0  0  0  0
 66 67  1  0  0  0  0
 66212  1  0  0  0  0
 66213  1  0  0  0  0
 67 68  1  0  0  0  0
 67214  1  0  0  0  0
 67215  1  0  0  0  0
 68 69  1  0  0  0  0
 68216  1  0  0  0  0
 68217  1  0  0  0  0
 69 70  1  0  0  0  0
 69218  1  0  0  0  0
 69219  1  0  0  0  0
 70 71  1  0  0  0  0
 70220  1  0  0  0  0
 70221  1  0  0  0  0
 71 72  1  0  0  0  0
 71222  1  0  0  0  0
 71223  1  0  0  0  0
 72 73  1  0  0  0  0
 72224  1  0  0  0  0
 72225  1  0  0  0  0
 73 74  1  0  0  0  0
 73226  1  0  0  0  0
 73227  1  0  0  0  0
 74 75  1  0  0  0  0
 74228  1  0  0  0  0
 74229  1  0  0  0  0
 75 76  1  0  0  0  0
 75230  1  0  0  0  0
 75231  1  0  0  0  0
 76 77  1  0  0  0  0
 76232  1  0  0  0  0
 76233  1  0  0  0  0
 77 78  1  0  0  0  0
 77234  1  0  0  0  0
 77235  1  0  0  0  0
 78 79  1  0  0  0  0
 78236  1  0  0  0  0
 78237  1  0  0  0  0
 79 80  1  0  0  0  0
 79238  1  0  0  0  0
 79239  1  0  0  0  0
 80 81  1  0  0  0  0
 80240  1  0  0  0  0
 80241  1  0  0  0  0
 81242  1  0  0  0  0
 81243  1  0  0  0  0
 81244  1  0  0  0  0
M  END
$$$$
