
 OpenBabel04232216423D

172171  0  0  0  0  0  0  0  0999 V2000
   20.6965   -1.6121  -23.1491 C   0  0  0  0  0  0  0  0  0  0  0  0
   21.5683   -0.9441  -22.3819 C   0  0  0  0  0  0  0  0  0  0  0  0
   22.1677    0.3501  -22.8153 C   0  0  0  0  0  0  0  0  0  0  0  0
   23.6222    0.2258  -22.8744 N   0  0  0  0  0  0  0  0  0  0  0  0
   24.1680    1.4812  -23.2944 N   0  0  0  0  0  0  0  0  0  0  0  0
   25.6047    1.3998  -23.3617 N   0  0  0  0  0  0  0  0  0  0  0  0
   26.1442    2.6485  -23.7954 N   0  0  0  0  0  0  0  0  0  0  0  0
   25.8194    3.6819  -22.8536 N   0  0  0  0  0  0  0  0  0  0  0  0
   26.3042    3.3418  -21.5416 N   0  0  0  0  0  0  0  0  0  0  0  0
   27.7242    3.2174  -21.5901 N   0  0  0  0  0  0  0  0  0  0  0  0
   28.2841    4.4481  -22.0296 N   0  0  0  0  0  0  0  0  0  0  0  0
   27.9208    5.5084  -21.1201 N   0  0  0  0  0  0  0  0  0  0  0  0
   28.3981    5.1818  -19.8035 N   0  0  0  0  0  0  0  0  0  0  0  0
   29.8206    5.0426  -19.8584 N   0  0  0  0  0  0  0  0  0  0  0  0
   30.4193    6.2685  -20.3007 N   0  0  0  0  0  0  0  0  0  0  0  0
   30.0516    7.3270  -19.4093 N   0  0  0  0  0  0  0  0  0  0  0  0
   30.5314    7.0450  -18.0826 N   0  0  0  0  0  0  0  0  0  0  0  0
   31.9473    6.8701  -18.1074 N   0  0  0  0  0  0  0  0  0  0  0  0
   32.5471    8.0868  -18.5550 N   0  0  0  0  0  0  0  0  0  0  0  0
   32.1624    9.1612  -17.6982 N   0  0  0  0  0  0  0  0  0  0  0  0
   32.6264    8.8768  -16.3735 N   0  0  0  0  0  0  0  0  0  0  0  0
   34.0564    8.6921  -16.3625 N   0  0  0  0  0  0  0  0  0  0  0  0
   34.6605    9.8904  -16.8295 N   0  0  0  0  0  0  0  0  0  0  0  0
   34.2800   10.9822  -15.9861 N   0  0  0  0  0  0  0  0  0  0  0  0
   34.7173   10.7008  -14.6445 N   0  0  0  0  0  0  0  0  0  0  0  0
   36.1351   10.5177  -14.6263 N   0  0  0  0  0  0  0  0  0  0  0  0
   36.7868   11.7123  -15.0943 N   0  0  0  0  0  0  0  0  0  0  0  0
   36.4364   12.8194  -14.2463 N   0  0  0  0  0  0  0  0  0  0  0  0
   36.8193   12.5406  -12.8984 N   0  0  0  0  0  0  0  0  0  0  0  0
   38.2347   12.3608  -12.8595 N   0  0  0  0  0  0  0  0  0  0  0  0
   38.9067   13.5317  -13.3547 N   0  0  0  0  0  0  0  0  0  0  0  0
   38.5540   14.6409  -12.5263 N   0  0  0  0  0  0  0  0  0  0  0  0
   38.9291   14.3910  -11.1685 N   0  0  0  0  0  0  0  0  0  0  0  0
   40.3389   14.1750  -11.1225 N   0  0  0  0  0  0  0  0  0  0  0  0
   41.0370   15.3407  -11.6045 N   0  0  0  0  0  0  0  0  0  0  0  0
   40.6619   16.4702  -10.8096 N   0  0  0  0  0  0  0  0  0  0  0  0
   41.0311   16.2296   -9.4453 N   0  0  0  0  0  0  0  0  0  0  0  0
   42.4445   16.0120   -9.3698 N   0  0  0  0  0  0  0  0  0  0  0  0
   43.1479   17.1556   -9.8813 N   0  0  0  0  0  0  0  0  0  0  0  0
   42.8032   18.3001   -9.0961 N   0  0  0  0  0  0  0  0  0  0  0  0
   43.1671   18.0807   -7.7173 N   0  0  0  0  0  0  0  0  0  0  0  0
   44.5833   17.8230   -7.6150 N   0  0  0  0  0  0  0  0  0  0  0  0
   45.2676   18.9512   -8.1216 N   0  0  0  0  0  0  0  0  0  0  0  0
   44.9266   20.1187   -7.3626 N   0  0  0  0  0  0  0  0  0  0  0  0
   45.2520   19.8889   -5.9957 N   0  0  0  0  0  0  0  0  0  0  0  0
   46.6584   19.6286   -5.8816 N   0  0  0  0  0  0  0  0  0  0  0  0
   47.3971   20.7550   -6.3856 N   0  0  0  0  0  0  0  0  0  0  0  0
   47.0668   21.9372   -5.6410 N   0  0  0  0  0  0  0  0  0  0  0  0
   47.3710   21.7472   -4.2494 N   0  0  0  0  0  0  0  0  0  0  0  0
   48.7688   21.4799   -4.1246 N   0  0  0  0  0  0  0  0  0  0  0  0
   49.5255   22.5961   -4.6342 N   0  0  0  0  0  0  0  0  0  0  0  0
   49.1913   23.7895   -3.9151 N   0  0  0  0  0  0  0  0  0  0  0  0
   49.4786   23.5957   -2.5485 N   0  0  0  0  0  0  0  0  0  0  0  0
   50.8800   23.3128   -2.4062 N   0  0  0  0  0  0  0  0  0  0  0  0
   51.6718   24.4075   -2.9257 N   0  0  0  0  0  0  0  0  0  0  0  0
   51.3335   25.5926   -2.2385 N   0  0  0  0  0  0  0  0  0  0  0  0
   51.6264   25.4399   -0.8500 N   0  0  0  0  0  0  0  0  0  0  0  0
   53.0102   25.1303   -0.6624 N   0  0  0  0  0  0  0  0  0  0  0  0
   53.7874   26.1850   -1.2105 N   0  0  0  0  0  0  0  0  0  0  0  0
   53.4558   27.4034   -0.5240 N   0  0  0  0  0  0  0  0  0  0  0  0
   53.7083   27.2534    0.8853 N   0  0  0  0  0  0  0  0  0  0  0  0
   55.1111   26.9567    1.1123 N   0  0  0  0  0  0  0  0  0  0  0  0
   55.9124   27.9986    0.5734 N   0  0  0  0  0  0  0  0  0  0  0  0
   55.5884   29.2243    1.2176 N   0  0  0  0  0  0  0  0  0  0  0  0
   55.8099   29.0947    2.6274 N   0  0  0  0  0  0  0  0  0  0  0  0
   57.1903   28.7808    2.8777 N   0  0  0  0  0  0  0  0  0  0  0  0
   58.0089   29.8060    2.3440 N   0  0  0  0  0  0  0  0  0  0  0  0
   57.6860   31.0398    2.9699 N   0  0  0  0  0  0  0  0  0  0  0  0
   57.8823   30.9463    4.3902 N   0  0  0  0  0  0  0  0  0  0  0  0
   59.2508   30.6201    4.6687 N   0  0  0  0  0  0  0  0  0  0  0  0
   60.1169   31.6509    4.1234 N   0  0  0  0  0  0  0  0  0  0  0  0
   59.7467   32.9215    4.7555 C   0  0  0  0  0  0  0  0  0  0  0  0
   60.6231   34.0175    4.1985 C   0  0  0  0  0  0  0  0  0  0  0  0
   60.2733   35.3424    4.8478 C   0  0  0  0  0  0  0  0  0  0  0  0
   61.1554   36.4430    4.2952 C   0  0  0  0  0  0  0  0  0  0  0  0
   60.8070   37.7664    4.9443 C   0  0  0  0  0  0  0  0  0  0  0  0
   61.6897   38.8655    4.3908 C   0  0  0  0  0  0  0  0  0  0  0  0
   61.3409   40.1891    5.0376 C   0  0  0  0  0  0  0  0  0  0  0  0
   62.2243   41.2895    4.4866 C   0  0  0  0  0  0  0  0  0  0  0  0
   61.8730   42.6082    5.1345 C   0  0  0  0  0  0  0  0  0  0  0  0
   20.2729   -2.5532  -22.8265 H   0  0  0  0  0  0  0  0  0  0  0  0
   20.4080   -1.2245  -24.1224 H   0  0  0  0  0  0  0  0  0  0  0  0
   21.8555   -1.3454  -21.4146 H   0  0  0  0  0  0  0  0  0  0  0  0
   21.8981    1.1374  -22.0970 H   0  0  0  0  0  0  0  0  0  0  0  0
   21.7857    0.6468  -23.7976 H   0  0  0  0  0  0  0  0  0  0  0  0
   23.9073   -0.4585  -23.5686 H   0  0  0  0  0  0  0  0  0  0  0  0
   23.8796    2.1920  -22.6185 H   0  0  0  0  0  0  0  0  0  0  0  0
   25.8753    0.6594  -24.0244 H   0  0  0  0  0  0  0  0  0  0  0  0
   25.8003    2.8857  -24.7342 H   0  0  0  0  0  0  0  0  0  0  0  0
   24.8087    3.7963  -22.7909 H   0  0  0  0  0  0  0  0  0  0  0  0
   25.8951    2.4491  -21.2420 H   0  0  0  0  0  0  0  0  0  0  0  0
   28.0000    2.4899  -22.2557 H   0  0  0  0  0  0  0  0  0  0  0  0
   27.9199    4.6757  -22.9597 H   0  0  0  0  0  0  0  0  0  0  0  0
   26.8966    5.5734  -21.1070 H   0  0  0  0  0  0  0  0  0  0  0  0
   27.9782    4.2913  -19.5024 H   0  0  0  0  0  0  0  0  0  0  0  0
   30.0580    4.2818  -20.5096 H   0  0  0  0  0  0  0  0  0  0  0  0
   30.0676    6.5248  -21.2258 H   0  0  0  0  0  0  0  0  0  0  0  0
   29.0265    7.4218  -19.4090 H   0  0  0  0  0  0  0  0  0  0  0  0
   30.1257    6.1676  -17.7623 H   0  0  0  0  0  0  0  0  0  0  0  0
   32.1729    6.0963  -18.7467 H   0  0  0  0  0  0  0  0  0  0  0  0
   32.2001    8.3083  -19.4855 H   0  0  0  0  0  0  0  0  0  0  0  0
   31.1352    9.2443  -17.7141 H   0  0  0  0  0  0  0  0  0  0  0  0
   32.2045    8.0114  -16.0425 H   0  0  0  0  0  0  0  0  0  0  0  0
   34.2728    7.9078  -16.9943 H   0  0  0  0  0  0  0  0  0  0  0  0
   34.3407   10.1053  -17.7762 H   0  0  0  0  0  0  0  0  0  0  0  0
   33.2577   11.0767  -16.0044 H   0  0  0  0  0  0  0  0  0  0  0  0
   34.2870    9.8360  -14.3024 H   0  0  0  0  0  0  0  0  0  0  0  0
   36.4012    9.7298  -15.2249 H   0  0  0  0  0  0  0  0  0  0  0  0
   36.4896   11.9046  -16.0591 H   0  0  0  0  0  0  0  0  0  0  0  0
   35.4269   12.9491  -14.2496 H   0  0  0  0  0  0  0  0  0  0  0  0
   36.3364   11.6875  -12.5802 H   0  0  0  0  0  0  0  0  0  0  0  0
   38.5072   11.5840  -13.4571 H   0  0  0  0  0  0  0  0  0  0  0  0
   38.5936   13.6944  -14.3223 H   0  0  0  0  0  0  0  0  0  0  0  0
   37.5461   14.7807  -12.5433 H   0  0  0  0  0  0  0  0  0  0  0  0
   38.4570   13.5396  -10.8533 H   0  0  0  0  0  0  0  0  0  0  0  0
   40.5626   13.3588  -11.7024 H   0  0  0  0  0  0  0  0  0  0  0  0
   40.7327   15.5276  -12.5606 H   0  0  0  0  0  0  0  0  0  0  0  0
   39.6445   16.5974  -10.8875 H   0  0  0  0  0  0  0  0  0  0  0  0
   40.5426   15.3948   -9.0986 H   0  0  0  0  0  0  0  0  0  0  0  0
   42.7090   15.2118   -9.9447 H   0  0  0  0  0  0  0  0  0  0  0  0
   42.8644   17.2965  -10.8612 H   0  0  0  0  0  0  0  0  0  0  0  0
   41.7905   18.4547   -9.1346 H   0  0  0  0  0  0  0  0  0  0  0  0
   42.6731   17.2516   -7.3873 H   0  0  0  0  0  0  0  0  0  0  0  0
   44.7720   16.9829   -8.1851 H   0  0  0  0  0  0  0  0  0  0  0  0
   45.0056   19.1336   -9.0881 H   0  0  0  0  0  0  0  0  0  0  0  0
   43.9184   20.2722   -7.4197 H   0  0  0  0  0  0  0  0  0  0  0  0
   44.7174   19.0750   -5.6706 H   0  0  0  0  0  0  0  0  0  0  0  0
   46.8830   18.7992   -6.4418 H   0  0  0  0  0  0  0  0  0  0  0  0
   47.1405   20.9184   -7.3636 H   0  0  0  0  0  0  0  0  0  0  0  0
   46.0657   22.1088   -5.7213 H   0  0  0  0  0  0  0  0  0  0  0  0
   46.8164   20.9459   -3.9180 H   0  0  0  0  0  0  0  0  0  0  0  0
   49.0020   20.6368   -4.6642 H   0  0  0  0  0  0  0  0  0  0  0  0
   49.2753   22.7467   -5.6135 H   0  0  0  0  0  0  0  0  0  0  0  0
   48.1919   23.9553   -4.0192 H   0  0  0  0  0  0  0  0  0  0  0  0
   48.9291   22.8021   -2.2022 H   0  0  0  0  0  0  0  0  0  0  0  0
   51.0833   22.4554   -2.9392 H   0  0  0  0  0  0  0  0  0  0  0  0
   51.4164   24.5219   -3.9096 H   0  0  0  0  0  0  0  0  0  0  0  0
   50.3351   25.7754   -2.3408 H   0  0  0  0  0  0  0  0  0  0  0  0
   51.0749   24.6570   -0.5034 H   0  0  0  0  0  0  0  0  0  0  0  0
   53.1923   24.2838   -1.1993 H   0  0  0  0  0  0  0  0  0  0  0  0
   53.5411   26.2534   -2.2103 H   0  0  0  0  0  0  0  0  0  0  0  0
   52.4516   27.5903   -0.6828 H   0  0  0  0  0  0  0  0  0  0  0  0
   53.1351   26.4834    1.2472 H   0  0  0  0  0  0  0  0  0  0  0  0
   55.3272   26.0950    0.6037 H   0  0  0  0  0  0  0  0  0  0  0  0
   55.7219   28.0971   -0.4237 H   0  0  0  0  0  0  0  0  0  0  0  0
   54.5980   29.4084    1.0721 H   0  0  0  0  0  0  0  0  0  0  0  0
   55.2442   28.3157    2.9613 H   0  0  0  0  0  0  0  0  0  0  0  0
   57.3904   27.9105    2.3817 H   0  0  0  0  0  0  0  0  0  0  0  0
   57.8319   29.8826    1.3408 H   0  0  0  0  0  0  0  0  0  0  0  0
   56.7010   31.2411    2.7937 H   0  0  0  0  0  0  0  0  0  0  0  0
   57.2923   30.1790    4.7184 H   0  0  0  0  0  0  0  0  0  0  0  0
   59.4346   29.7417    4.1748 H   0  0  0  0  0  0  0  0  0  0  0  0
   59.9031   31.6932    3.1195 H   0  0  0  0  0  0  0  0  0  0  0  0
   59.8848   32.8470    5.8381 H   0  0  0  0  0  0  0  0  0  0  0  0
   58.6962   33.1794    4.5609 H   0  0  0  0  0  0  0  0  0  0  0  0
   60.4823   34.0951    3.1147 H   0  0  0  0  0  0  0  0  0  0  0  0
   61.6734   33.7813    4.3931 H   0  0  0  0  0  0  0  0  0  0  0  0
   60.4126   35.2704    5.9319 H   0  0  0  0  0  0  0  0  0  0  0  0
   59.2223   35.5834    4.6550 H   0  0  0  0  0  0  0  0  0  0  0  0
   61.0158   36.5172    3.2116 H   0  0  0  0  0  0  0  0  0  0  0  0
   62.2064   36.2042    4.4886 H   0  0  0  0  0  0  0  0  0  0  0  0
   60.9467   37.6930    6.0280 H   0  0  0  0  0  0  0  0  0  0  0  0
   59.7561   38.0060    4.7510 H   0  0  0  0  0  0  0  0  0  0  0  0
   61.5510   38.9383    3.3070 H   0  0  0  0  0  0  0  0  0  0  0  0
   62.7406   38.6269    4.5856 H   0  0  0  0  0  0  0  0  0  0  0  0
   61.4772   40.1159    6.1221 H   0  0  0  0  0  0  0  0  0  0  0  0
   60.2898   40.4283    4.8426 H   0  0  0  0  0  0  0  0  0  0  0  0
   62.0867   41.3662    3.4035 H   0  0  0  0  0  0  0  0  0  0  0  0
   63.2747   41.0537    4.6837 H   0  0  0  0  0  0  0  0  0  0  0  0
   60.8275   42.8607    4.9347 H   0  0  0  0  0  0  0  0  0  0  0  0
   62.5083   43.4032    4.7391 H   0  0  0  0  0  0  0  0  0  0  0  0
   62.0175   42.5476    6.2171 H   0  0  0  0  0  0  0  0  0  0  0  0
  1  2  2  0  0  0  0
  1 81  1  0  0  0  0
  1 82  1  0  0  0  0
  2  3  1  0  0  0  0
  2 83  1  0  0  0  0
  3  4  1  0  0  0  0
  3 84  1  0  0  0  0
  3 85  1  0  0  0  0
  4  5  1  0  0  0  0
  4 86  1  0  0  0  0
  5  6  1  0  0  0  0
  5 87  1  0  0  0  0
  6  7  1  0  0  0  0
  6 88  1  0  0  0  0
  7  8  1  0  0  0  0
  7 89  1  0  0  0  0
  8  9  1  0  0  0  0
  8 90  1  0  0  0  0
  9 10  1  0  0  0  0
  9 91  1  0  0  0  0
 10 11  1  0  0  0  0
 10 92  1  0  0  0  0
 11 12  1  0  0  0  0
 11 93  1  0  0  0  0
 12 13  1  0  0  0  0
 12 94  1  0  0  0  0
 13 14  1  0  0  0  0
 13 95  1  0  0  0  0
 14 15  1  0  0  0  0
 14 96  1  0  0  0  0
 15 16  1  0  0  0  0
 15 97  1  0  0  0  0
 16 17  1  0  0  0  0
 16 98  1  0  0  0  0
 17 18  1  0  0  0  0
 17 99  1  0  0  0  0
 18 19  1  0  0  0  0
 18100  1  0  0  0  0
 19 20  1  0  0  0  0
 19101  1  0  0  0  0
 20 21  1  0  0  0  0
 20102  1  0  0  0  0
 21 22  1  0  0  0  0
 21103  1  0  0  0  0
 22 23  1  0  0  0  0
 22104  1  0  0  0  0
 23 24  1  0  0  0  0
 23105  1  0  0  0  0
 24 25  1  0  0  0  0
 24106  1  0  0  0  0
 25 26  1  0  0  0  0
 25107  1  0  0  0  0
 26 27  1  0  0  0  0
 26108  1  0  0  0  0
 27 28  1  0  0  0  0
 27109  1  0  0  0  0
 28 29  1  0  0  0  0
 28110  1  0  0  0  0
 29 30  1  0  0  0  0
 29111  1  0  0  0  0
 30 31  1  0  0  0  0
 30112  1  0  0  0  0
 31 32  1  0  0  0  0
 31113  1  0  0  0  0
 32 33  1  0  0  0  0
 32114  1  0  0  0  0
 33 34  1  0  0  0  0
 33115  1  0  0  0  0
 34 35  1  0  0  0  0
 34116  1  0  0  0  0
 35 36  1  0  0  0  0
 35117  1  0  0  0  0
 36 37  1  0  0  0  0
 36118  1  0  0  0  0
 37 38  1  0  0  0  0
 37119  1  0  0  0  0
 38 39  1  0  0  0  0
 38120  1  0  0  0  0
 39 40  1  0  0  0  0
 39121  1  0  0  0  0
 40 41  1  0  0  0  0
 40122  1  0  0  0  0
 41 42  1  0  0  0  0
 41123  1  0  0  0  0
 42 43  1  0  0  0  0
 42124  1  0  0  0  0
 43 44  1  0  0  0  0
 43125  1  0  0  0  0
 44 45  1  0  0  0  0
 44126  1  0  0  0  0
 45 46  1  0  0  0  0
 45127  1  0  0  0  0
 46 47  1  0  0  0  0
 46128  1  0  0  0  0
 47 48  1  0  0  0  0
 47129  1  0  0  0  0
 48 49  1  0  0  0  0
 48130  1  0  0  0  0
 49 50  1  0  0  0  0
 49131  1  0  0  0  0
 50 51  1  0  0  0  0
 50132  1  0  0  0  0
 51 52  1  0  0  0  0
 51133  1  0  0  0  0
 52 53  1  0  0  0  0
 52134  1  0  0  0  0
 53 54  1  0  0  0  0
 53135  1  0  0  0  0
 54 55  1  0  0  0  0
 54136  1  0  0  0  0
 55 56  1  0  0  0  0
 55137  1  0  0  0  0
 56 57  1  0  0  0  0
 56138  1  0  0  0  0
 57 58  1  0  0  0  0
 57139  1  0  0  0  0
 58 59  1  0  0  0  0
 58140  1  0  0  0  0
 59 60  1  0  0  0  0
 59141  1  0  0  0  0
 60 61  1  0  0  0  0
 60142  1  0  0  0  0
 61 62  1  0  0  0  0
 61143  1  0  0  0  0
 62 63  1  0  0  0  0
 62144  1  0  0  0  0
 63 64  1  0  0  0  0
 63145  1  0  0  0  0
 64 65  1  0  0  0  0
 64146  1  0  0  0  0
 65 66  1  0  0  0  0
 65147  1  0  0  0  0
 66 67  1  0  0  0  0
 66148  1  0  0  0  0
 67 68  1  0  0  0  0
 67149  1  0  0  0  0
 68 69  1  0  0  0  0
 68150  1  0  0  0  0
 69 70  1  0  0  0  0
 69151  1  0  0  0  0
 70 71  1  0  0  0  0
 70152  1  0  0  0  0
 71 72  1  0  0  0  0
 71153  1  0  0  0  0
 72 73  1  0  0  0  0
 72154  1  0  0  0  0
 72155  1  0  0  0  0
 73 74  1  0  0  0  0
 73156  1  0  0  0  0
 73157  1  0  0  0  0
 74 75  1  0  0  0  0
 74158  1  0  0  0  0
 74159  1  0  0  0  0
 75 76  1  0  0  0  0
 75160  1  0  0  0  0
 75161  1  0  0  0  0
 76 77  1  0  0  0  0
 76162  1  0  0  0  0
 76163  1  0  0  0  0
 77 78  1  0  0  0  0
 77164  1  0  0  0  0
 77165  1  0  0  0  0
 78 79  1  0  0  0  0
 78166  1  0  0  0  0
 78167  1  0  0  0  0
 79 80  1  0  0  0  0
 79168  1  0  0  0  0
 79169  1  0  0  0  0
 80170  1  0  0  0  0
 80171  1  0  0  0  0
 80172  1  0  0  0  0
M  END
$$$$
