
 OpenBabel04232216443D

 66 67  0  0  0  0  0  0  0  0999 V2000
    5.4369    0.5379   -2.4025 C   0  0  0  0  0  0  0  0  0  0  0  0
    5.6873    2.0974   -2.3628 C   0  0  0  0  0  0  0  0  0  0  0  0
    4.6395    2.6283   -1.5779 C   0  0  0  0  0  0  0  0  0  0  0  0
    3.0956    2.5069   -1.9247 C   0  0  0  0  0  0  0  0  0  0  0  0
    2.3378    3.8115   -1.6357 C   0  0  0  0  0  0  0  0  0  0  0  0
    4.6210    2.3364   -0.0588 C   0  0  0  0  0  0  0  0  0  0  0  0
    5.1506    3.5512    0.6436 C   0  0  0  0  0  0  0  0  0  0  0  0
    6.6293    3.3045    0.7607 C   0  0  0  0  0  0  0  0  0  0  0  0
    7.3959    4.5389    0.4095 C   0  0  0  0  0  0  0  0  0  0  0  0
    8.8774    4.1763    0.4864 C   0  0  0  0  0  0  0  0  0  0  0  0
    9.6772    5.3581    0.0312 C   0  0  0  0  0  0  0  0  0  0  0  0
   10.5755    4.9530   -1.0894 C   0  0  0  0  0  0  0  0  0  0  0  0
   11.6655    4.3919   -0.9280 O   0  0  0  0  0  0  0  0  0  0  0  0
   10.0416    5.2569   -2.4536 C   0  0  0  0  0  0  0  0  0  0  0  0
    9.5544    4.0653   -2.9621 C   0  0  0  0  0  0  0  0  0  0  0  0
   10.6038    3.5262   -3.8372 N   0  0  0  0  0  0  0  0  0  0  0  0
   12.1726    3.8053   -3.9224 C   0  0  0  0  0  0  0  0  0  0  0  0
   13.0247    5.1686   -3.9743 C   0  0  0  0  0  0  0  0  0  0  0  0
   13.2212    6.0925   -5.2362 C   0  0  0  0  0  0  0  0  0  0  0  0
   13.8255    7.5353   -4.9935 C   0  0  0  0  0  0  0  0  0  0  0  0
   13.0100    8.6995   -5.5995 C   0  0  0  0  0  0  0  0  0  0  0  0
   11.9510    9.2839   -4.6554 C   0  0  0  0  0  0  0  0  0  0  0  0
   10.8507    8.2893   -4.2678 C   0  0  0  0  0  0  0  0  0  0  0  0
   10.9485    7.6839   -2.8689 C   0  0  0  0  0  0  0  0  0  0  0  0
    9.7495    6.7355   -2.6093 C   0  0  0  0  0  0  0  0  0  0  0  0
    8.6347    7.1994   -2.4138 O   0  0  0  0  0  0  0  0  0  0  0  0
    8.0736    3.7085   -2.8362 N   0  0  0  0  0  0  0  0  0  0  0  0
    7.4170    2.5375   -2.5203 C   0  0  0  0  0  0  0  0  0  0  0  0
    4.3617    0.2907   -2.2566 H   0  0  0  0  0  0  0  0  0  0  0  0
    5.9257    0.0114   -1.5673 H   0  0  0  0  0  0  0  0  0  0  0  0
    5.6895    0.0601   -3.3497 H   0  0  0  0  0  0  0  0  0  0  0  0
    2.6202    1.7382   -1.2867 H   0  0  0  0  0  0  0  0  0  0  0  0
    2.9016    2.1678   -2.9462 H   0  0  0  0  0  0  0  0  0  0  0  0
    2.6593    4.2957   -0.7042 H   0  0  0  0  0  0  0  0  0  0  0  0
    1.2615    3.6233   -1.5230 H   0  0  0  0  0  0  0  0  0  0  0  0
    2.4714    4.5225   -2.4520 H   0  0  0  0  0  0  0  0  0  0  0  0
    5.1787    1.4242    0.1942 H   0  0  0  0  0  0  0  0  0  0  0  0
    3.6239    2.1263    0.3599 H   0  0  0  0  0  0  0  0  0  0  0  0
    4.7038    3.6731    1.6360 H   0  0  0  0  0  0  0  0  0  0  0  0
    4.9022    4.4567    0.0743 H   0  0  0  0  0  0  0  0  0  0  0  0
    6.9603    2.5125    0.0774 H   0  0  0  0  0  0  0  0  0  0  0  0
    6.8674    2.9384    1.7622 H   0  0  0  0  0  0  0  0  0  0  0  0
    7.1501    5.3575    1.0920 H   0  0  0  0  0  0  0  0  0  0  0  0
    7.1234    4.8704   -0.6032 H   0  0  0  0  0  0  0  0  0  0  0  0
    9.0563    3.2737   -0.1255 H   0  0  0  0  0  0  0  0  0  0  0  0
    9.1253    3.9028    1.5114 H   0  0  0  0  0  0  0  0  0  0  0  0
   10.2735    5.7907    0.8395 H   0  0  0  0  0  0  0  0  0  0  0  0
    9.0027    6.1478   -0.3019 H   0  0  0  0  0  0  0  0  0  0  0  0
   10.5018    2.5096   -3.7858 H   0  0  0  0  0  0  0  0  0  0  0  0
   12.5221    3.2287   -4.7898 H   0  0  0  0  0  0  0  0  0  0  0  0
   12.5918    3.2803   -3.0510 H   0  0  0  0  0  0  0  0  0  0  0  0
   14.0656    4.8132   -3.8317 H   0  0  0  0  0  0  0  0  0  0  0  0
   12.8981    5.7388   -3.0621 H   0  0  0  0  0  0  0  0  0  0  0  0
   12.3110    6.1566   -5.8303 H   0  0  0  0  0  0  0  0  0  0  0  0
   13.9684    5.6023   -5.8820 H   0  0  0  0  0  0  0  0  0  0  0  0
   14.8085    7.5875   -5.4928 H   0  0  0  0  0  0  0  0  0  0  0  0
   14.0336    7.7408   -3.9373 H   0  0  0  0  0  0  0  0  0  0  0  0
   12.5468    8.3964   -6.5466 H   0  0  0  0  0  0  0  0  0  0  0  0
   13.6907    9.5249   -5.8675 H   0  0  0  0  0  0  0  0  0  0  0  0
   11.4738   10.1179   -5.1924 H   0  0  0  0  0  0  0  0  0  0  0  0
   12.4313    9.7370   -3.7789 H   0  0  0  0  0  0  0  0  0  0  0  0
   10.7874    7.4920   -5.0128 H   0  0  0  0  0  0  0  0  0  0  0  0
    9.8942    8.8208   -4.3182 H   0  0  0  0  0  0  0  0  0  0  0  0
   10.9429    8.4784   -2.1116 H   0  0  0  0  0  0  0  0  0  0  0  0
   11.9090    7.2082   -2.7020 H   0  0  0  0  0  0  0  0  0  0  0  0
    8.0559    1.6607   -2.3433 H   0  0  0  0  0  0  0  0  0  0  0  0
  1  2  1  0  0  0  0
  1 29  1  0  0  0  0
  1 30  1  0  0  0  0
  1 31  1  0  0  0  0
  2  3  2  3  0  0  0
  2 28  1  0  0  0  0
  3  4  1  0  0  0  0
  3  6  1  0  0  0  0
  4  5  1  0  0  0  0
  4 32  1  0  0  0  0
  4 33  1  0  0  0  0
  5 34  1  0  0  0  0
  5 35  1  0  0  0  0
  5 36  1  0  0  0  0
  6  7  1  0  0  0  0
  6 37  1  0  0  0  0
  6 38  1  0  0  0  0
  7  8  1  0  0  0  0
  7 39  1  0  0  0  0
  7 40  1  0  0  0  0
  8  9  1  0  0  0  0
  8 41  1  0  0  0  0
  8 42  1  0  0  0  0
  9 10  1  0  0  0  0
  9 43  1  0  0  0  0
  9 44  1  0  0  0  0
 10 11  1  0  0  0  0
 10 45  1  0  0  0  0
 10 46  1  0  0  0  0
 11 12  1  0  0  0  0
 11 47  1  0  0  0  0
 11 48  1  0  0  0  0
 12 13  2  0  0  0  0
 12 14  1  0  0  0  0
 14 15  2  3  0  0  0
 14 25  1  0  0  0  0
 15 16  1  0  0  0  0
 15 27  1  0  0  0  0
 16 17  1  0  0  0  0
 16 49  1  0  0  0  0
 17 18  1  0  0  0  0
 17 50  1  0  0  0  0
 17 51  1  0  0  0  0
 18 19  1  0  0  0  0
 18 52  1  0  0  0  0
 18 53  1  0  0  0  0
 19 20  1  0  0  0  0
 19 54  1  0  0  0  0
 19 55  1  0  0  0  0
 20 21  1  0  0  0  0
 20 56  1  0  0  0  0
 20 57  1  0  0  0  0
 21 22  1  0  0  0  0
 21 58  1  0  0  0  0
 21 59  1  0  0  0  0
 22 23  1  0  0  0  0
 22 60  1  0  0  0  0
 22 61  1  0  0  0  0
 23 24  1  0  0  0  0
 23 62  1  0  0  0  0
 23 63  1  0  0  0  0
 24 25  1  0  0  0  0
 24 64  1  0  0  0  0
 24 65  1  0  0  0  0
 25 26  2  0  0  0  0
 27 28  2  3  0  0  0
 28 66  1  0  0  0  0
M  END
$$$$
