
 OpenBabel04232216393D

 31 31  0  0  1  0  0  0  0  0999 V2000
    2.0028   -3.3248    0.0774 C   0  0  0  0  0  0  0  0  0  0  0  0
    2.5629   -2.1747    0.4733 C   0  0  0  0  0  0  0  0  0  0  0  0
    3.0033   -1.0838   -0.4644 C   0  0  0  0  0  0  0  0  0  0  0  0
    4.5233   -0.7880   -0.3851 C   0  0  3  0  0  0  0  0  0  0  0  0
    5.3273   -2.0402   -0.7878 C   0  0  0  0  0  0  0  0  0  0  0  0
    6.8593   -1.9400   -0.7571 C   0  0  3  0  0  0  0  0  0  0  0  0
    7.4103   -1.6615    0.6381 C   0  0  0  0  0  0  0  0  0  0  0  0
    7.3992   -1.0089   -1.8461 C   0  0  0  0  0  0  0  0  0  0  0  0
    7.4199    0.4853   -1.5508 C   0  0  0  0  0  0  0  0  0  0  0  0
    6.1753    1.1057   -0.9232 C   0  0  0  0  0  0  0  0  0  0  0  0
    4.8423    0.4425   -1.2593 C   0  0  0  0  0  0  0  0  0  0  0  0
    1.7170   -4.0818    0.8018 H   0  0  0  0  0  0  0  0  0  0  0  0
    1.8261   -3.5426   -0.9714 H   0  0  0  0  0  0  0  0  0  0  0  0
    2.7248   -2.0045    1.5356 H   0  0  0  0  0  0  0  0  0  0  0  0
    2.4412   -0.1793   -0.1982 H   0  0  0  0  0  0  0  0  0  0  0  0
    2.7284   -1.3278   -1.4988 H   0  0  0  0  0  0  0  0  0  0  0  0
    4.7524   -0.5428    0.6603 H   0  0  0  0  0  0  0  0  0  0  0  0
    5.0177   -2.3504   -1.7958 H   0  0  0  0  0  0  0  0  0  0  0  0
    5.0505   -2.8719   -0.1277 H   0  0  0  0  0  0  0  0  0  0  0  0
    7.2172   -2.9448   -1.0261 H   0  0  0  0  0  0  0  0  0  0  0  0
    7.0570   -0.7179    1.0590 H   0  0  0  0  0  0  0  0  0  0  0  0
    8.5054   -1.6305    0.6245 H   0  0  0  0  0  0  0  0  0  0  0  0
    7.1102   -2.4559    1.3327 H   0  0  0  0  0  0  0  0  0  0  0  0
    6.8455   -1.1828   -2.7771 H   0  0  0  0  0  0  0  0  0  0  0  0
    8.4327   -1.3088   -2.0701 H   0  0  0  0  0  0  0  0  0  0  0  0
    7.6206    1.0015   -2.4990 H   0  0  0  0  0  0  0  0  0  0  0  0
    8.2787    0.7176   -0.9108 H   0  0  0  0  0  0  0  0  0  0  0  0
    6.1334    2.1526   -1.2509 H   0  0  0  0  0  0  0  0  0  0  0  0
    6.2949    1.1588    0.1646 H   0  0  0  0  0  0  0  0  0  0  0  0
    4.7861    0.1937   -2.3257 H   0  0  0  0  0  0  0  0  0  0  0  0
    4.0650    1.1987   -1.0824 H   0  0  0  0  0  0  0  0  0  0  0  0
  1  2  2  0  0  0  0
  1 12  1  0  0  0  0
  1 13  1  0  0  0  0
  2  3  1  0  0  0  0
  2 14  1  0  0  0  0
  3  4  1  0  0  0  0
  3 15  1  0  0  0  0
  3 16  1  0  0  0  0
  4  5  1  0  0  0  0
  4 11  1  0  0  0  0
  4 17  1  0  0  0  0
  5  6  1  0  0  0  0
  5 18  1  0  0  0  0
  5 19  1  0  0  0  0
  6  7  1  0  0  0  0
  6  8  1  0  0  0  0
  6 20  1  0  0  0  0
  7 21  1  0  0  0  0
  7 22  1  0  0  0  0
  7 23  1  0  0  0  0
  8  9  1  0  0  0  0
  8 24  1  0  0  0  0
  8 25  1  0  0  0  0
  9 10  1  0  0  0  0
  9 26  1  0  0  0  0
  9 27  1  0  0  0  0
 10 11  1  0  0  0  0
 10 28  1  0  0  0  0
 10 29  1  0  0  0  0
 11 30  1  0  0  0  0
 11 31  1  0  0  0  0
M  END
$$$$
