
 OpenBabel04232216453D

 56 57  0  0  0  0  0  0  0  0999 V2000
    4.8354    2.8533    0.1135 C   0  0  0  0  0  0  0  0  0  0  0  0
    5.7933    2.4340    1.2097 C   0  0  0  0  0  0  0  0  0  0  0  0
    5.0946    1.4812    2.0318 C   0  0  0  0  0  0  0  0  0  0  0  0
    4.9477    0.1438    1.9162 C   0  0  0  0  0  0  0  0  0  0  0  0
    4.9102   -0.7263    0.6947 C   0  0  0  0  0  0  0  0  0  0  0  0
    5.5576   -0.3942    3.1498 C   0  0  0  0  0  0  0  0  0  0  0  0
    4.7427    0.0310    4.3912 C   0  0  0  0  0  0  0  0  0  0  0  0
    6.9221   -0.5872    3.1501 C   0  0  0  0  0  0  0  0  0  0  0  0
    7.8123   -0.7752    1.8436 C   0  0  0  0  0  0  0  0  0  0  0  0
    9.2350   -1.3667    1.9965 C   0  0  0  0  0  0  0  0  0  0  0  0
   10.0116   -1.7645    0.7208 C   0  0  0  0  0  0  0  0  0  0  0  0
   11.1076   -0.8210    0.1891 C   0  0  0  0  0  0  0  0  0  0  0  0
   10.7318    0.5115   -0.4949 C   0  0  0  0  0  0  0  0  0  0  0  0
   12.0421    1.1199    0.0395 C   0  0  0  0  0  0  0  0  0  0  0  0
   12.1120   -0.0246    1.0704 C   0  0  0  0  0  0  0  0  0  0  0  0
    7.5588    0.0083    4.3261 C   0  0  0  0  0  0  0  0  0  0  0  0
    8.7023   -0.3023    4.9581 C   0  0  0  0  0  0  0  0  0  0  0  0
    9.2743    0.7632    5.7414 C   0  0  0  0  0  0  0  0  0  0  0  0
   10.5164    1.2258    5.4235 C   0  0  0  0  0  0  0  0  0  0  0  0
   10.5201    2.6562    5.0153 C   0  0  0  0  0  0  0  0  0  0  0  0
   10.2113    2.8588    3.7100 C   0  0  0  0  0  0  0  0  0  0  0  0
    8.9110    3.3896    3.1916 C   0  0  0  0  0  0  0  0  0  0  0  0
    8.1844    2.6604    2.3002 C   0  0  0  0  0  0  0  0  0  0  0  0
    7.0426    2.9434    1.4048 C   0  0  0  0  0  0  0  0  0  0  0  0
    3.9564    3.3546    0.5442 H   0  0  0  0  0  0  0  0  0  0  0  0
    4.4522    1.9740   -0.4255 H   0  0  0  0  0  0  0  0  0  0  0  0
    5.2958    3.5156   -0.6171 H   0  0  0  0  0  0  0  0  0  0  0  0
    4.2580    1.9519    2.5841 H   0  0  0  0  0  0  0  0  0  0  0  0
    3.8670   -0.9348    0.4306 H   0  0  0  0  0  0  0  0  0  0  0  0
    5.3586   -1.7085    0.8493 H   0  0  0  0  0  0  0  0  0  0  0  0
    5.3840   -0.2402   -0.1590 H   0  0  0  0  0  0  0  0  0  0  0  0
    3.6689   -0.1090    4.2277 H   0  0  0  0  0  0  0  0  0  0  0  0
    4.8729    1.1086    4.5993 H   0  0  0  0  0  0  0  0  0  0  0  0
    5.0302   -0.4980    5.3001 H   0  0  0  0  0  0  0  0  0  0  0  0
    7.8855    0.1648    1.2930 H   0  0  0  0  0  0  0  0  0  0  0  0
    7.2975   -1.4337    1.1426 H   0  0  0  0  0  0  0  0  0  0  0  0
    9.0819   -2.2987    2.5545 H   0  0  0  0  0  0  0  0  0  0  0  0
    9.8581   -0.7082    2.5984 H   0  0  0  0  0  0  0  0  0  0  0  0
    9.3275   -2.0214   -0.0962 H   0  0  0  0  0  0  0  0  0  0  0  0
   10.5332   -2.6983    0.9753 H   0  0  0  0  0  0  0  0  0  0  0  0
   11.6906   -1.4337   -0.5236 H   0  0  0  0  0  0  0  0  0  0  0  0
    9.8303    0.9915   -0.1097 H   0  0  0  0  0  0  0  0  0  0  0  0
   10.6735    0.4600   -1.5874 H   0  0  0  0  0  0  0  0  0  0  0  0
   11.9515    2.1271    0.4568 H   0  0  0  0  0  0  0  0  0  0  0  0
   12.8651    1.1170   -0.6859 H   0  0  0  0  0  0  0  0  0  0  0  0
   11.7631    0.2632    2.0638 H   0  0  0  0  0  0  0  0  0  0  0  0
   13.1086   -0.4704    1.1669 H   0  0  0  0  0  0  0  0  0  0  0  0
    7.0984    0.9737    4.5959 H   0  0  0  0  0  0  0  0  0  0  0  0
    9.2955   -1.1642    4.6986 H   0  0  0  0  0  0  0  0  0  0  0  0
    8.5730    1.5186    6.0882 H   0  0  0  0  0  0  0  0  0  0  0  0
   11.2388    0.5630    4.9189 H   0  0  0  0  0  0  0  0  0  0  0  0
   10.1246    3.2861    5.8115 H   0  0  0  0  0  0  0  0  0  0  0  0
   10.7161    2.2059    2.9976 H   0  0  0  0  0  0  0  0  0  0  0  0
    8.6093    4.3724    3.5260 H   0  0  0  0  0  0  0  0  0  0  0  0
    8.6744    1.7230    2.0446 H   0  0  0  0  0  0  0  0  0  0  0  0
    7.3760    3.6195    0.6235 H   0  0  0  0  0  0  0  0  0  0  0  0
  1  2  1  0  0  0  0
  1 25  1  0  0  0  0
  1 26  1  0  0  0  0
  1 27  1  0  0  0  0
  2  3  1  0  0  0  0
  2 24  2  0  0  0  0
  3  4  2  0  0  0  0
  3 28  1  0  0  0  0
  4  5  1  0  0  0  0
  4  6  1  0  0  0  0
  5 29  1  0  0  0  0
  5 30  1  0  0  0  0
  5 31  1  0  0  0  0
  6  7  1  0  0  0  0
  6  8  2  0  0  0  0
  7 32  1  0  0  0  0
  7 33  1  0  0  0  0
  7 34  1  0  0  0  0
  8  9  1  0  0  0  0
  8 16  1  0  0  0  0
  9 10  1  0  0  0  0
  9 35  1  0  0  0  0
  9 36  1  0  0  0  0
 10 11  1  0  0  0  0
 10 37  1  0  0  0  0
 10 38  1  0  0  0  0
 11 12  1  0  0  0  0
 11 39  1  0  0  0  0
 11 40  1  0  0  0  0
 12 13  1  0  0  0  0
 12 15  1  0  0  0  0
 12 41  1  0  0  0  0
 13 14  1  0  0  0  0
 13 42  1  0  0  0  0
 13 43  1  0  0  0  0
 14 15  1  0  0  0  0
 14 44  1  0  0  0  0
 14 45  1  0  0  0  0
 15 46  1  0  0  0  0
 15 47  1  0  0  0  0
 16 17  2  0  0  0  0
 16 48  1  0  0  0  0
 17 18  1  0  0  0  0
 17 49  1  0  0  0  0
 18 19  2  0  0  0  0
 18 50  1  0  0  0  0
 19 20  1  0  0  0  0
 19 51  1  0  0  0  0
 20 21  2  0  0  0  0
 20 52  1  0  0  0  0
 21 22  1  0  0  0  0
 21 53  1  0  0  0  0
 22 23  2  0  0  0  0
 22 54  1  0  0  0  0
 23 24  1  0  0  0  0
 23 55  1  0  0  0  0
 24 56  1  0  0  0  0
M  END
$$$$
