
 OpenBabel04232216493D

 72 72  0  0  1  0  0  0  0  0999 V2000
    0.3730   -1.4344    2.0484 C   0  0  0  0  0  0  0  0  0  0  0  0
   -0.0106   -0.7304    0.7820 C   0  0  0  0  0  0  0  0  0  0  0  0
    0.3373   -1.2542   -0.4689 C   0  0  0  0  0  0  0  0  0  0  0  0
   -0.0194   -0.5830   -1.6387 C   0  0  0  0  0  0  0  0  0  0  0  0
   -0.7326    0.6117   -1.5703 C   0  0  0  0  0  0  0  0  0  0  0  0
   -1.1003    1.1442   -0.3287 C   0  0  0  0  0  0  0  0  0  0  0  0
   -1.8512    2.4463   -0.2524 C   0  0  0  0  0  0  0  0  0  0  0  0
   -0.8851    3.6244   -0.1990 C   0  0  0  0  0  0  0  0  0  0  0  0
   -1.6336    4.9480   -0.1448 C   0  0  0  0  0  0  0  0  0  0  0  0
   -0.6410    6.1019   -0.0935 C   0  0  0  0  0  0  0  0  0  0  0  0
   -1.3736    7.4299   -0.0369 C   0  0  0  0  0  0  0  0  0  0  0  0
   -0.3859    8.5840    0.0240 C   0  0  0  0  0  0  0  0  0  0  0  0
   -1.1564    9.8927    0.1137 C   0  0  0  0  0  0  0  0  0  0  0  0
   -0.2018   11.0716    0.1834 C   0  0  0  0  0  0  0  0  0  0  0  0
   -0.9238   12.4275    0.2090 C   0  0  3  0  0  0  0  0  0  0  0  0
   -1.8221   12.5653    1.4412 C   0  0  0  0  0  0  0  0  0  0  0  0
    0.0885   13.5868    0.1753 C   0  0  0  0  0  0  0  0  0  0  0  0
    0.9213   13.5793   -1.1052 C   0  0  0  0  0  0  0  0  0  0  0  0
    1.9243   14.7212   -1.1440 C   0  0  0  0  0  0  0  0  0  0  0  0
    2.7452   14.6246   -2.4261 C   0  0  0  0  0  0  0  0  0  0  0  0
    3.7734   15.7407   -2.4963 C   0  0  0  0  0  0  0  0  0  0  0  0
    4.5805   15.6465   -3.7865 C   0  0  0  0  0  0  0  0  0  0  0  0
    5.6029   16.7752   -3.8556 C   0  0  0  0  0  0  0  0  0  0  0  0
    6.4172   16.7023   -5.1407 C   0  0  0  0  0  0  0  0  0  0  0  0
    7.4328   17.8306   -5.2014 C   0  0  0  0  0  0  0  0  0  0  0  0
   -0.7232    0.4733    0.8431 C   0  0  0  0  0  0  0  0  0  0  0  0
    0.8952   -2.3742    1.8413 H   0  0  0  0  0  0  0  0  0  0  0  0
   -0.5200   -1.6699    2.6353 H   0  0  0  0  0  0  0  0  0  0  0  0
    1.0402   -0.8026    2.6441 H   0  0  0  0  0  0  0  0  0  0  0  0
    0.8914   -2.1873   -0.5411 H   0  0  0  0  0  0  0  0  0  0  0  0
    0.2599   -0.9921   -2.6060 H   0  0  0  0  0  0  0  0  0  0  0  0
   -0.9974    1.1298   -2.4894 H   0  0  0  0  0  0  0  0  0  0  0  0
   -2.5020    2.4467    0.6310 H   0  0  0  0  0  0  0  0  0  0  0  0
   -2.5162    2.5380   -1.1202 H   0  0  0  0  0  0  0  0  0  0  0  0
   -0.2278    3.6137   -1.0775 H   0  0  0  0  0  0  0  0  0  0  0  0
   -0.2344    3.5370    0.6818 H   0  0  0  0  0  0  0  0  0  0  0  0
   -2.2847    4.9773    0.7379 H   0  0  0  0  0  0  0  0  0  0  0  0
   -2.2783    5.0519   -1.0265 H   0  0  0  0  0  0  0  0  0  0  0  0
    0.0085    6.0751   -0.9768 H   0  0  0  0  0  0  0  0  0  0  0  0
    0.0043    5.9983    0.7875 H   0  0  0  0  0  0  0  0  0  0  0  0
   -2.0262    7.4566    0.8445 H   0  0  0  0  0  0  0  0  0  0  0  0
   -2.0156    7.5412   -0.9193 H   0  0  0  0  0  0  0  0  0  0  0  0
    0.2568    8.5788   -0.8644 H   0  0  0  0  0  0  0  0  0  0  0  0
    0.2685    8.4752    0.8977 H   0  0  0  0  0  0  0  0  0  0  0  0
   -1.7967    9.8634    1.0011 H   0  0  0  0  0  0  0  0  0  0  0  0
   -1.8094    9.9992   -0.7629 H   0  0  0  0  0  0  0  0  0  0  0  0
    0.4437   11.0010   -0.7022 H   0  0  0  0  0  0  0  0  0  0  0  0
    0.4570   10.9770    1.0546 H   0  0  0  0  0  0  0  0  0  0  0  0
   -1.5631   12.5021   -0.6800 H   0  0  0  0  0  0  0  0  0  0  0  0
   -1.2443   12.4590    2.3670 H   0  0  0  0  0  0  0  0  0  0  0  0
   -2.6138   11.8090    1.4492 H   0  0  0  0  0  0  0  0  0  0  0  0
   -2.3176   13.5399    1.4576 H   0  0  0  0  0  0  0  0  0  0  0  0
    0.7511   13.5286    1.0486 H   0  0  0  0  0  0  0  0  0  0  0  0
   -0.4478   14.5414    0.2461 H   0  0  0  0  0  0  0  0  0  0  0  0
    0.2562   13.6356   -1.9754 H   0  0  0  0  0  0  0  0  0  0  0  0
    1.4883   12.6480   -1.1913 H   0  0  0  0  0  0  0  0  0  0  0  0
    2.5883   14.6615   -0.2729 H   0  0  0  0  0  0  0  0  0  0  0  0
    1.4035   15.6839   -1.0975 H   0  0  0  0  0  0  0  0  0  0  0  0
    2.0783   14.6757   -3.2959 H   0  0  0  0  0  0  0  0  0  0  0  0
    3.2539   13.6524   -2.4695 H   0  0  0  0  0  0  0  0  0  0  0  0
    4.4458   15.6779   -1.6317 H   0  0  0  0  0  0  0  0  0  0  0  0
    3.2663   16.7116   -2.4447 H   0  0  0  0  0  0  0  0  0  0  0  0
    3.9062   15.7011   -4.6497 H   0  0  0  0  0  0  0  0  0  0  0  0
    5.0907   14.6767   -3.8352 H   0  0  0  0  0  0  0  0  0  0  0  0
    6.2713   16.7165   -2.9877 H   0  0  0  0  0  0  0  0  0  0  0  0
    5.0850   17.7406   -3.7995 H   0  0  0  0  0  0  0  0  0  0  0  0
    5.7525   16.7634   -6.0095 H   0  0  0  0  0  0  0  0  0  0  0  0
    6.9399   15.7395   -5.1977 H   0  0  0  0  0  0  0  0  0  0  0  0
    6.9335   18.8045   -5.1722 H   0  0  0  0  0  0  0  0  0  0  0  0
    8.0127   17.7704   -6.1262 H   0  0  0  0  0  0  0  0  0  0  0  0
    8.1269   17.7756   -4.3568 H   0  0  0  0  0  0  0  0  0  0  0  0
   -0.9846    0.8934    1.8137 H   0  0  0  0  0  0  0  0  0  0  0  0
  1  2  1  0  0  0  0
  1 27  1  0  0  0  0
  1 28  1  0  0  0  0
  1 29  1  0  0  0  0
  2  3  1  0  0  0  0
  2 26  2  0  0  0  0
  3  4  2  0  0  0  0
  3 30  1  0  0  0  0
  4  5  1  0  0  0  0
  4 31  1  0  0  0  0
  5  6  2  0  0  0  0
  5 32  1  0  0  0  0
  6  7  1  0  0  0  0
  6 26  1  0  0  0  0
  7  8  1  0  0  0  0
  7 33  1  0  0  0  0
  7 34  1  0  0  0  0
  8  9  1  0  0  0  0
  8 35  1  0  0  0  0
  8 36  1  0  0  0  0
  9 10  1  0  0  0  0
  9 37  1  0  0  0  0
  9 38  1  0  0  0  0
 10 11  1  0  0  0  0
 10 39  1  0  0  0  0
 10 40  1  0  0  0  0
 11 12  1  0  0  0  0
 11 41  1  0  0  0  0
 11 42  1  0  0  0  0
 12 13  1  0  0  0  0
 12 43  1  0  0  0  0
 12 44  1  0  0  0  0
 13 14  1  0  0  0  0
 13 45  1  0  0  0  0
 13 46  1  0  0  0  0
 14 15  1  0  0  0  0
 14 47  1  0  0  0  0
 14 48  1  0  0  0  0
 15 16  1  0  0  0  0
 15 17  1  0  0  0  0
 15 49  1  0  0  0  0
 16 50  1  0  0  0  0
 16 51  1  0  0  0  0
 16 52  1  0  0  0  0
 17 18  1  0  0  0  0
 17 53  1  0  0  0  0
 17 54  1  0  0  0  0
 18 19  1  0  0  0  0
 18 55  1  0  0  0  0
 18 56  1  0  0  0  0
 19 20  1  0  0  0  0
 19 57  1  0  0  0  0
 19 58  1  0  0  0  0
 20 21  1  0  0  0  0
 20 59  1  0  0  0  0
 20 60  1  0  0  0  0
 21 22  1  0  0  0  0
 21 61  1  0  0  0  0
 21 62  1  0  0  0  0
 22 23  1  0  0  0  0
 22 63  1  0  0  0  0
 22 64  1  0  0  0  0
 23 24  1  0  0  0  0
 23 65  1  0  0  0  0
 23 66  1  0  0  0  0
 24 25  1  0  0  0  0
 24 67  1  0  0  0  0
 24 68  1  0  0  0  0
 25 69  1  0  0  0  0
 25 70  1  0  0  0  0
 25 71  1  0  0  0  0
 26 72  1  0  0  0  0
M  END
$$$$
