
 OpenBabel04232216503D

 77 78  0  0  1  0  0  0  0  0999 V2000
    6.6555   -4.0084    0.1442 C   0  0  0  0  0  0  0  0  0  0  0  0
    7.2520   -4.1914   -1.4756 C   0  0  3  0  0  0  0  0  0  0  0  0
    5.6325   -3.5151   -2.0259 C   0  0  0  0  0  0  0  0  0  0  0  0
    5.2693   -1.8944   -1.7876 C   0  0  0  0  0  0  0  0  0  0  0  0
    5.3159   -1.1315   -3.1066 C   0  0  0  0  0  0  0  0  0  0  0  0
    6.7637   -1.1330   -3.4037 C   0  0  0  0  0  0  0  0  0  0  0  0
    7.0251   -2.3159   -4.2568 C   0  0  0  0  0  0  0  0  0  0  0  0
    8.4620   -2.4883   -3.9874 C   0  0  0  0  0  0  0  0  0  0  0  0
    8.9077   -3.2724   -5.1114 C   0  0  0  0  0  0  0  0  0  0  0  0
   10.3912   -3.1165   -5.1184 C   0  0  0  0  0  0  0  0  0  0  0  0
   10.5792   -3.9151   -6.3260 C   0  0  0  0  0  0  0  0  0  0  0  0
   11.7364   -3.5996   -7.0800 N   0  0  0  0  0  0  0  0  0  0  0  0
   11.8264   -4.6558   -7.9731 C   0  0  0  0  0  0  0  0  0  0  0  0
   11.2221   -4.6328   -9.0410 O   0  0  0  0  0  0  0  0  0  0  0  0
   12.1376   -5.9222   -7.2214 C   0  0  0  0  0  0  0  0  0  0  0  0
   12.8332   -5.6535   -6.0455 C   0  0  0  0  0  0  0  0  0  0  0  0
   12.2781   -5.4558   -4.6466 C   0  0  0  0  0  0  0  0  0  0  0  0
   11.4609   -6.4167   -4.1121 C   0  0  0  0  0  0  0  0  0  0  0  0
   12.3978   -7.8381   -4.7618 C   0  0  0  0  0  0  0  0  0  0  0  0
   13.7929   -8.1916   -6.0432 C   0  0  0  0  0  0  0  0  0  0  0  0
   14.2681   -8.9188   -7.6131 C   0  0  0  0  0  0  0  0  0  0  0  0
   13.3031   -9.1138   -8.7804 C   0  0  0  0  0  0  0  0  0  0  0  0
   13.0584  -10.0915  -10.0493 C   0  0  0  0  0  0  0  0  0  0  0  0
   11.5899   -9.8151  -10.1619 C   0  0  0  0  0  0  0  0  0  0  0  0
   10.2121  -10.0099  -10.6590 C   0  0  0  0  0  0  0  0  0  0  0  0
    9.3507   -8.9661   -9.7132 C   0  0  0  0  0  0  0  0  0  0  0  0
   10.1215   -7.6729   -8.8010 C   0  0  0  0  0  0  0  0  0  0  0  0
   11.1452   -7.1309   -7.5258 C   0  0  0  0  0  0  0  0  0  0  0  0
    9.9226   -5.7569   -3.2236 C   0  0  0  0  0  0  0  0  0  0  0  0
    8.9335   -5.0107   -2.1606 C   0  0  0  0  0  0  0  0  0  0  0  0
    5.8436   -3.2282    0.1668 H   0  0  0  0  0  0  0  0  0  0  0  0
    7.3134   -3.4957    0.8489 H   0  0  0  0  0  0  0  0  0  0  0  0
    6.0605   -4.8395    0.5492 H   0  0  0  0  0  0  0  0  0  0  0  0
    7.7415   -3.2045   -1.4142 H   0  0  0  0  0  0  0  0  0  0  0  0
    5.2511   -3.8682   -2.9832 H   0  0  0  0  0  0  0  0  0  0  0  0
    4.8561   -3.9620   -1.3723 H   0  0  0  0  0  0  0  0  0  0  0  0
    5.9485   -1.4148   -1.0590 H   0  0  0  0  0  0  0  0  0  0  0  0
    4.2657   -1.7118   -1.3729 H   0  0  0  0  0  0  0  0  0  0  0  0
    4.9755   -0.0913   -3.1051 H   0  0  0  0  0  0  0  0  0  0  0  0
    4.7241   -1.6648   -3.8606 H   0  0  0  0  0  0  0  0  0  0  0  0
    7.3539   -1.1975   -2.4723 H   0  0  0  0  0  0  0  0  0  0  0  0
    7.1402   -0.2370   -3.9020 H   0  0  0  0  0  0  0  0  0  0  0  0
    6.7321   -2.1190   -5.2916 H   0  0  0  0  0  0  0  0  0  0  0  0
    6.5521   -3.2770   -4.0538 H   0  0  0  0  0  0  0  0  0  0  0  0
    8.6618   -2.9896   -3.0614 H   0  0  0  0  0  0  0  0  0  0  0  0
    9.0028   -1.5445   -3.9037 H   0  0  0  0  0  0  0  0  0  0  0  0
    8.4819   -2.8452   -6.0382 H   0  0  0  0  0  0  0  0  0  0  0  0
    8.5414   -4.3137   -5.0508 H   0  0  0  0  0  0  0  0  0  0  0  0
   10.8135   -3.4719   -4.1558 H   0  0  0  0  0  0  0  0  0  0  0  0
   10.6776   -2.0718   -5.2084 H   0  0  0  0  0  0  0  0  0  0  0  0
    9.7446   -3.9126   -7.0334 H   0  0  0  0  0  0  0  0  0  0  0  0
   10.4860   -4.9487   -5.9715 H   0  0  0  0  0  0  0  0  0  0  0  0
   12.5172   -3.4412   -6.4393 H   0  0  0  0  0  0  0  0  0  0  0  0
   13.7534   -5.0253   -6.1605 H   0  0  0  0  0  0  0  0  0  0  0  0
   13.0911   -5.1117   -3.9864 H   0  0  0  0  0  0  0  0  0  0  0  0
   12.0946   -8.7749   -4.2900 H   0  0  0  0  0  0  0  0  0  0  0  0
   13.2363   -7.5857   -4.0599 H   0  0  0  0  0  0  0  0  0  0  0  0
   14.3885   -7.2653   -6.1162 H   0  0  0  0  0  0  0  0  0  0  0  0
   14.4495   -8.8115   -5.4204 H   0  0  0  0  0  0  0  0  0  0  0  0
   14.7948   -9.8616   -7.4388 H   0  0  0  0  0  0  0  0  0  0  0  0
   15.0492   -8.2512   -8.0288 H   0  0  0  0  0  0  0  0  0  0  0  0
   13.1821   -8.1142   -9.2334 H   0  0  0  0  0  0  0  0  0  0  0  0
   12.4953   -9.4334   -8.1337 H   0  0  0  0  0  0  0  0  0  0  0  0
   13.3088  -11.1242   -9.8307 H   0  0  0  0  0  0  0  0  0  0  0  0
   13.6015   -9.7637  -10.9487 H   0  0  0  0  0  0  0  0  0  0  0  0
   11.6508   -8.7526  -10.3983 H   0  0  0  0  0  0  0  0  0  0  0  0
   11.2951  -10.1284   -9.1518 H   0  0  0  0  0  0  0  0  0  0  0  0
    9.8623  -11.0443  -10.4941 H   0  0  0  0  0  0  0  0  0  0  0  0
   10.0897   -9.8027  -11.7320 H   0  0  0  0  0  0  0  0  0  0  0  0
    8.5931   -8.5162  -10.3608 H   0  0  0  0  0  0  0  0  0  0  0  0
    8.7917   -9.5994   -9.0017 H   0  0  0  0  0  0  0  0  0  0  0  0
   10.7030   -7.2724   -9.6284 H   0  0  0  0  0  0  0  0  0  0  0  0
   10.3595   -8.5957   -8.2480 H   0  0  0  0  0  0  0  0  0  0  0  0
   10.6557   -7.3958   -6.5915 H   0  0  0  0  0  0  0  0  0  0  0  0
   11.9545   -7.8182   -7.6385 H   0  0  0  0  0  0  0  0  0  0  0  0
   10.7487   -5.4985   -2.5001 H   0  0  0  0  0  0  0  0  0  0  0  0
    9.5373   -4.4879   -1.3739 H   0  0  0  0  0  0  0  0  0  0  0  0
  1  2  1  0  0  0  0
  1 31  1  0  0  0  0
  1 32  1  0  0  0  0
  1 33  1  0  0  0  0
  2  3  1  0  0  0  0
  2 30  1  0  0  0  0
  2 34  1  0  0  0  0
  3  4  1  0  0  0  0
  3 35  1  0  0  0  0
  3 36  1  0  0  0  0
  4  5  1  0  0  0  0
  4 37  1  0  0  0  0
  4 38  1  0  0  0  0
  5  6  1  0  0  0  0
  5 39  1  0  0  0  0
  5 40  1  0  0  0  0
  6  7  1  0  0  0  0
  6 41  1  0  0  0  0
  6 42  1  0  0  0  0
  7  8  1  0  0  0  0
  7 43  1  0  0  0  0
  7 44  1  0  0  0  0
  8  9  1  0  0  0  0
  8 45  1  0  0  0  0
  8 46  1  0  0  0  0
  9 10  1  0  0  0  0
  9 47  1  0  0  0  0
  9 48  1  0  0  0  0
 10 11  1  0  0  0  0
 10 49  1  0  0  0  0
 10 50  1  0  0  0  0
 11 12  1  0  0  0  0
 11 51  1  0  0  0  0
 11 52  1  0  0  0  0
 12 13  1  0  0  0  0
 12 53  1  0  0  0  0
 13 14  2  0  0  0  0
 13 15  1  0  0  0  0
 15 16  2  3  0  0  0
 15 28  1  0  0  0  0
 16 17  1  0  0  0  0
 16 54  1  0  0  0  0
 17 18  2  3  0  0  0
 17 55  1  0  0  0  0
 18 19  1  0  0  0  0
 18 29  1  0  0  0  0
 19 20  1  0  0  0  0
 19 56  1  0  0  0  0
 19 57  1  0  0  0  0
 20 21  1  0  0  0  0
 20 58  1  0  0  0  0
 20 59  1  0  0  0  0
 21 22  1  0  0  0  0
 21 60  1  0  0  0  0
 21 61  1  0  0  0  0
 22 23  1  0  0  0  0
 22 62  1  0  0  0  0
 22 63  1  0  0  0  0
 23 24  1  0  0  0  0
 23 64  1  0  0  0  0
 23 65  1  0  0  0  0
 24 25  1  0  0  0  0
 24 66  1  0  0  0  0
 24 67  1  0  0  0  0
 25 26  1  0  0  0  0
 25 68  1  0  0  0  0
 25 69  1  0  0  0  0
 26 27  1  0  0  0  0
 26 70  1  0  0  0  0
 26 71  1  0  0  0  0
 27 28  1  0  0  0  0
 27 72  1  0  0  0  0
 27 73  1  0  0  0  0
 28 74  1  0  0  0  0
 28 75  1  0  0  0  0
 29 30  2  3  0  0  0
 29 76  1  0  0  0  0
 30 77  1  0  0  0  0
M  END
$$$$
