
 OpenBabel04232216503D

 78 78  0  0  1  0  0  0  0  0999 V2000
    7.2675   -3.8080   -0.2335 C   0  0  0  0  0  0  0  0  0  0  0  0
    8.6889   -4.5007   -1.7335 C   0  0  3  0  0  0  0  0  0  0  0  0
    6.7010   -3.5807   -1.9703 C   0  0  0  0  0  0  0  0  0  0  0  0
    5.9641   -1.7055   -1.8388 C   0  0  0  0  0  0  0  0  0  0  0  0
    5.4011   -1.9652   -3.2373 C   0  0  0  0  0  0  0  0  0  0  0  0
    6.8181   -1.7704   -3.5947 C   0  0  0  0  0  0  0  0  0  0  0  0
    7.2835   -3.0361   -4.1622 C   0  0  0  0  0  0  0  0  0  0  0  0
    8.7384   -2.8407   -3.8845 C   0  0  0  0  0  0  0  0  0  0  0  0
    9.1565   -4.0695   -4.4941 C   0  0  0  0  0  0  0  0  0  0  0  0
   10.5754   -3.8303   -4.4720 C   0  0  0  0  0  0  0  0  0  0  0  0
   10.9849   -4.9325   -5.2925 C   0  0  0  0  0  0  0  0  0  0  0  0
   12.3663   -4.4685   -5.3884 C   0  0  0  0  0  0  0  0  0  0  0  0
   12.7824   -5.3741   -6.4532 C   0  0  0  0  0  0  0  0  0  0  0  0
   14.2303   -5.0134   -6.5057 C   0  0  0  0  0  0  0  0  0  0  0  0
   14.7914   -4.1097   -5.8507 O   0  0  0  0  0  0  0  0  0  0  0  0
   14.9799   -6.1481   -7.0021 C   0  0  0  0  0  0  0  0  0  0  0  0
   15.0074   -6.3169   -5.6828 C   0  0  0  0  0  0  0  0  0  0  0  0
   13.7486   -6.4328   -4.4303 C   0  0  0  0  0  0  0  0  0  0  0  0
   12.5751   -6.4875   -3.3457 C   0  0  0  0  0  0  0  0  0  0  0  0
   14.6453   -7.6115   -3.9436 C   0  0  0  0  0  0  0  0  0  0  0  0
   16.4517   -8.3888   -5.1310 C   0  0  0  0  0  0  0  0  0  0  0  0
   18.3855   -9.3961   -6.0016 C   0  0  0  0  0  0  0  0  0  0  0  0
   20.1617  -10.1879   -7.1567 C   0  0  0  0  0  0  0  0  0  0  0  0
   22.0216  -11.2870   -7.8174 C   0  0  0  0  0  0  0  0  0  0  0  0
   23.5329  -11.8847   -9.1306 C   0  0  0  0  0  0  0  0  0  0  0  0
   25.1886  -13.0418   -9.4178 C   0  0  0  0  0  0  0  0  0  0  0  0
   25.3054  -14.6928   -9.4569 C   0  0  0  0  0  0  0  0  0  0  0  0
   26.6628  -15.5457   -9.5882 C   0  0  0  0  0  0  0  0  0  0  0  0
   27.7961  -15.1452   -9.8363 O   0  0  0  0  0  0  0  0  0  0  0  0
   10.7660   -5.4875   -2.4176 C   0  0  0  0  0  0  0  0  0  0  0  0
    6.2080   -2.9688   -0.3172 H   0  0  0  0  0  0  0  0  0  0  0  0
    7.1793   -2.6322    0.2209 H   0  0  0  0  0  0  0  0  0  0  0  0
    6.0975   -4.3172   -0.0096 H   0  0  0  0  0  0  0  0  0  0  0  0
    9.0735   -3.4993   -1.3888 H   0  0  0  0  0  0  0  0  0  0  0  0
    5.4533   -3.3128   -1.6215 H   0  0  0  0  0  0  0  0  0  0  0  0
    5.7890   -4.3695   -1.8234 H   0  0  0  0  0  0  0  0  0  0  0  0
    6.0565   -1.1129   -0.9025 H   0  0  0  0  0  0  0  0  0  0  0  0
    5.0725   -0.9491   -1.8991 H   0  0  0  0  0  0  0  0  0  0  0  0
    4.5846   -1.3985   -3.7361 H   0  0  0  0  0  0  0  0  0  0  0  0
    4.9748   -2.9931   -3.3537 H   0  0  0  0  0  0  0  0  0  0  0  0
    7.5117   -1.8931   -2.7080 H   0  0  0  0  0  0  0  0  0  0  0  0
    7.2368   -0.7622   -3.5652 H   0  0  0  0  0  0  0  0  0  0  0  0
    6.8819   -3.1290   -5.1495 H   0  0  0  0  0  0  0  0  0  0  0  0
    6.9310   -4.0285   -3.7608 H   0  0  0  0  0  0  0  0  0  0  0  0
    9.2504   -2.7473   -2.9061 H   0  0  0  0  0  0  0  0  0  0  0  0
    9.0395   -1.8444   -4.2098 H   0  0  0  0  0  0  0  0  0  0  0  0
    8.7539   -4.0991   -5.5039 H   0  0  0  0  0  0  0  0  0  0  0  0
    8.7962   -4.9964   -4.0039 H   0  0  0  0  0  0  0  0  0  0  0  0
   11.1611   -3.8297   -3.5757 H   0  0  0  0  0  0  0  0  0  0  0  0
   10.8651   -2.8278   -4.7671 H   0  0  0  0  0  0  0  0  0  0  0  0
   10.4915   -4.9662   -6.2623 H   0  0  0  0  0  0  0  0  0  0  0  0
   10.7741   -5.9254   -4.8345 H   0  0  0  0  0  0  0  0  0  0  0  0
   12.8590   -4.4418   -4.3759 H   0  0  0  0  0  0  0  0  0  0  0  0
   12.5919   -3.4516   -5.6976 H   0  0  0  0  0  0  0  0  0  0  0  0
   12.3820   -5.4270   -7.4404 H   0  0  0  0  0  0  0  0  0  0  0  0
   12.4045   -6.3735   -6.1482 H   0  0  0  0  0  0  0  0  0  0  0  0
   14.4898   -6.9423   -7.5629 H   0  0  0  0  0  0  0  0  0  0  0  0
   16.0617   -6.1240   -5.3790 H   0  0  0  0  0  0  0  0  0  0  0  0
   13.3216   -7.3291   -5.1895 H   0  0  0  0  0  0  0  0  0  0  0  0
   14.3482   -8.6339   -3.6858 H   0  0  0  0  0  0  0  0  0  0  0  0
   15.3442   -7.0600   -3.2578 H   0  0  0  0  0  0  0  0  0  0  0  0
   17.2015   -7.5249   -5.0548 H   0  0  0  0  0  0  0  0  0  0  0  0
   16.0943   -8.4914   -6.2029 H   0  0  0  0  0  0  0  0  0  0  0  0
   18.3342  -10.4512   -5.6808 H   0  0  0  0  0  0  0  0  0  0  0  0
   19.2077   -8.8385   -5.5161 H   0  0  0  0  0  0  0  0  0  0  0  0
   20.8633   -9.3262   -7.4144 H   0  0  0  0  0  0  0  0  0  0  0  0
   19.8385  -10.5962   -8.1598 H   0  0  0  0  0  0  0  0  0  0  0  0
   21.9211  -12.4103   -7.6865 H   0  0  0  0  0  0  0  0  0  0  0  0
   22.9157  -11.0072   -7.1746 H   0  0  0  0  0  0  0  0  0  0  0  0
   24.2001  -11.0190   -9.5051 H   0  0  0  0  0  0  0  0  0  0  0  0
   23.1808  -12.2861  -10.1446 H   0  0  0  0  0  0  0  0  0  0  0  0
   26.1189  -12.7379   -8.8640 H   0  0  0  0  0  0  0  0  0  0  0  0
   25.6858  -12.8918  -10.4651 H   0  0  0  0  0  0  0  0  0  0  0  0
   24.7272  -15.1051  -10.2945 H   0  0  0  0  0  0  0  0  0  0  0  0
   24.9345  -15.0247   -8.4973 H   0  0  0  0  0  0  0  0  0  0  0  0
   26.5260  -16.6523   -9.4583 H   0  0  0  0  0  0  0  0  0  0  0  0
   11.0523   -4.4199   -2.1083 H   0  0  0  0  0  0  0  0  0  0  0  0
   10.6290   -5.8330   -1.3715 H   0  0  0  0  0  0  0  0  0  0  0  0
  1  2  1  0  0  0  0
  1 31  1  0  0  0  0
  1 32  1  0  0  0  0
  1 33  1  0  0  0  0
  2  3  1  0  0  0  0
  2 30  1  0  0  0  0
  2 34  1  0  0  0  0
  3  4  1  0  0  0  0
  3 35  1  0  0  0  0
  3 36  1  0  0  0  0
  4  5  1  0  0  0  0
  4 37  1  0  0  0  0
  4 38  1  0  0  0  0
  5  6  1  0  0  0  0
  5 39  1  0  0  0  0
  5 40  1  0  0  0  0
  6  7  1  0  0  0  0
  6 41  1  0  0  0  0
  6 42  1  0  0  0  0
  7  8  1  0  0  0  0
  7 43  1  0  0  0  0
  7 44  1  0  0  0  0
  8  9  1  0  0  0  0
  8 45  1  0  0  0  0
  8 46  1  0  0  0  0
  9 10  1  0  0  0  0
  9 47  1  0  0  0  0
  9 48  1  0  0  0  0
 10 11  1  0  0  0  0
 10 49  1  0  0  0  0
 10 50  1  0  0  0  0
 11 12  1  0  0  0  0
 11 51  1  0  0  0  0
 11 52  1  0  0  0  0
 12 13  1  0  0  0  0
 12 53  1  0  0  0  0
 12 54  1  0  0  0  0
 13 14  1  0  0  0  0
 13 55  1  0  0  0  0
 13 56  1  0  0  0  0
 14 15  2  0  0  0  0
 14 16  1  0  0  0  0
 16 17  2  3  0  0  0
 16 57  1  0  0  0  0
 17 18  1  0  0  0  0
 17 58  1  0  0  0  0
 18 19  2  3  0  0  0
 18 59  1  0  0  0  0
 19 20  1  0  0  0  0
 19 30  1  0  0  0  0
 20 21  1  0  0  0  0
 20 60  1  0  0  0  0
 20 61  1  0  0  0  0
 21 22  1  0  0  0  0
 21 62  1  0  0  0  0
 21 63  1  0  0  0  0
 22 23  1  0  0  0  0
 22 64  1  0  0  0  0
 22 65  1  0  0  0  0
 23 24  1  0  0  0  0
 23 66  1  0  0  0  0
 23 67  1  0  0  0  0
 24 25  1  0  0  0  0
 24 68  1  0  0  0  0
 24 69  1  0  0  0  0
 25 26  1  0  0  0  0
 25 70  1  0  0  0  0
 25 71  1  0  0  0  0
 26 27  1  0  0  0  0
 26 72  1  0  0  0  0
 26 73  1  0  0  0  0
 27 28  1  0  0  0  0
 27 74  1  0  0  0  0
 27 75  1  0  0  0  0
 28 29  2  0  0  0  0
 28 76  1  0  0  0  0
 30 77  1  0  0  0  0
 30 78  1  0  0  0  0
M  END
$$$$
