
 OpenBabel04232216483D

 48 49  0  0  1  0  0  0  0  0999 V2000
    3.4043    0.5295    2.7606 C   0  0  0  0  0  0  0  0  0  0  0  0
    4.2957    0.0261    1.5854 C   0  0  0  0  0  0  0  0  0  0  0  0
    3.5962    0.7459    0.5035 C   0  0  0  0  0  0  0  0  0  0  0  0
    4.0093    1.0601   -0.7499 C   0  0  0  0  0  0  0  0  0  0  0  0
    5.0863    0.1720   -1.1361 C   0  0  3  0  0  0  0  0  0  0  0  0
    4.5061   -1.4145   -0.9320 C   0  0  0  0  0  0  0  0  0  0  0  0
    3.1305   -1.9002   -1.4313 C   0  0  0  0  0  0  0  0  0  0  0  0
    5.3496    0.1400   -2.6530 C   0  0  0  0  0  0  0  0  0  0  0  0
    6.3837    0.9190   -0.3619 C   0  0  3  0  0  0  0  0  0  0  0  0
    6.6766    1.7076    0.9784 C   0  0  0  0  0  0  0  0  0  0  0  0
    7.2281   -0.2291   -0.1174 C   0  0  0  0  0  0  0  0  0  0  0  0
    6.6891   -1.2172    0.6367 C   0  0  0  0  0  0  0  0  0  0  0  0
    7.2658   -2.5174    0.3551 N   0  0  0  0  0  0  0  0  0  0  0  0
    6.5303   -3.8191    0.4146 C   0  0  0  0  0  0  0  0  0  0  0  0
    6.2130   -4.3536    1.7728 C   0  0  0  0  0  0  0  0  0  0  0  0
    8.1566   -2.6695   -0.8855 C   0  0  0  0  0  0  0  0  0  0  0  0
    8.8516   -1.4871   -1.4870 C   0  0  0  0  0  0  0  0  0  0  0  0
    8.4488   -0.1718   -0.9734 C   0  0  0  0  0  0  0  0  0  0  0  0
    5.4394   -0.7995    1.6768 C   0  0  0  0  0  0  0  0  0  0  0  0
    2.3860    0.1388    2.6622 H   0  0  0  0  0  0  0  0  0  0  0  0
    3.3273    1.6142    2.7401 H   0  0  0  0  0  0  0  0  0  0  0  0
    3.7823    0.2622    3.7633 H   0  0  0  0  0  0  0  0  0  0  0  0
    2.4852    0.7636    0.5379 H   0  0  0  0  0  0  0  0  0  0  0  0
    3.9981    2.0963   -1.0674 H   0  0  0  0  0  0  0  0  0  0  0  0
    4.4312   -1.7649    0.0827 H   0  0  0  0  0  0  0  0  0  0  0  0
    5.2330   -2.0642   -1.4144 H   0  0  0  0  0  0  0  0  0  0  0  0
    2.3307   -1.1571   -1.3738 H   0  0  0  0  0  0  0  0  0  0  0  0
    2.8066   -2.7424   -0.7829 H   0  0  0  0  0  0  0  0  0  0  0  0
    3.1954   -2.3230   -2.4371 H   0  0  0  0  0  0  0  0  0  0  0  0
    4.4300   -0.1067   -3.1973 H   0  0  0  0  0  0  0  0  0  0  0  0
    6.0761   -0.6414   -2.8729 H   0  0  0  0  0  0  0  0  0  0  0  0
    5.7151    1.0941   -3.0368 H   0  0  0  0  0  0  0  0  0  0  0  0
    6.7425    1.6316   -1.0995 H   0  0  0  0  0  0  0  0  0  0  0  0
    6.8769    1.1084    1.8864 H   0  0  0  0  0  0  0  0  0  0  0  0
    5.9511    2.4887    1.2508 H   0  0  0  0  0  0  0  0  0  0  0  0
    7.6579    2.2130    0.8547 H   0  0  0  0  0  0  0  0  0  0  0  0
    7.1687   -4.5983   -0.0260 H   0  0  0  0  0  0  0  0  0  0  0  0
    5.6480   -3.8160   -0.2372 H   0  0  0  0  0  0  0  0  0  0  0  0
    7.0874   -4.3004    2.4237 H   0  0  0  0  0  0  0  0  0  0  0  0
    5.9244   -5.4090    1.6829 H   0  0  0  0  0  0  0  0  0  0  0  0
    5.3756   -3.8115    2.2274 H   0  0  0  0  0  0  0  0  0  0  0  0
    7.5373   -3.0889   -1.6918 H   0  0  0  0  0  0  0  0  0  0  0  0
    8.9240   -3.4231   -0.6622 H   0  0  0  0  0  0  0  0  0  0  0  0
    8.6756   -1.4959   -2.5859 H   0  0  0  0  0  0  0  0  0  0  0  0
    9.9504   -1.5800   -1.4226 H   0  0  0  0  0  0  0  0  0  0  0  0
    8.2984    0.4931   -1.8413 H   0  0  0  0  0  0  0  0  0  0  0  0
    9.2444    0.3060   -0.3981 H   0  0  0  0  0  0  0  0  0  0  0  0
    5.6849   -1.1753    2.6692 H   0  0  0  0  0  0  0  0  0  0  0  0
  1  2  1  0  0  0  0
  1 20  1  0  0  0  0
  1 21  1  0  0  0  0
  1 22  1  0  0  0  0
  2  3  1  0  0  0  0
  2 19  2  0  0  0  0
  3  4  2  0  0  0  0
  3 23  1  0  0  0  0
  4  5  1  0  0  0  0
  4 24  1  0  0  0  0
  5  6  1  0  0  0  0
  5  8  1  0  0  0  0
  5  9  1  0  0  0  0
  6  7  1  0  0  0  0
  6 25  1  0  0  0  0
  6 26  1  0  0  0  0
  7 27  1  0  0  0  0
  7 28  1  0  0  0  0
  7 29  1  0  0  0  0
  8 30  1  0  0  0  0
  8 31  1  0  0  0  0
  8 32  1  0  0  0  0
  9 10  1  0  0  0  0
  9 11  1  0  0  0  0
  9 33  1  0  0  0  0
 10 34  1  0  0  0  0
 10 35  1  0  0  0  0
 10 36  1  0  0  0  0
 11 12  2  0  0  0  0
 11 18  1  0  0  0  0
 12 13  1  0  0  0  0
 12 19  1  0  0  0  0
 13 14  1  0  0  0  0
 13 16  1  0  0  0  0
 14 15  1  0  0  0  0
 14 37  1  0  0  0  0
 14 38  1  0  0  0  0
 15 39  1  0  0  0  0
 15 40  1  0  0  0  0
 15 41  1  0  0  0  0
 16 17  1  0  0  0  0
 16 42  1  0  0  0  0
 16 43  1  0  0  0  0
 17 18  1  0  0  0  0
 17 44  1  0  0  0  0
 17 45  1  0  0  0  0
 18 46  1  0  0  0  0
 18 47  1  0  0  0  0
 19 48  1  0  0  0  0
M  END
$$$$
