
 OpenBabel04232216393D

 20 20  0  0  0  0  0  0  0  0999 V2000
    3.7447   -0.8522   -2.0121 C   0  0  0  0  0  0  0  0  0  0  0  0
    3.1866   -0.4589   -0.6603 C   0  0  0  0  0  0  0  0  0  0  0  0
    3.0784   -1.6006    0.3259 C   0  0  0  0  0  3  0  0  0  0  0  0
    4.3140   -1.9205    1.0144 C   0  0  0  0  0  0  0  0  0  0  0  0
    4.9614   -3.0530    0.6847 C   0  0  0  0  0  0  0  0  0  0  0  0
    6.3287   -2.8537    0.2072 C   0  0  0  0  0  0  0  0  0  0  0  0
    6.5929   -3.3565   -1.0111 C   0  0  0  0  0  0  0  0  0  0  0  0
    7.0781   -2.4947   -2.0719 C   0  0  0  0  0  0  0  0  0  0  0  0
    6.3181   -1.5515   -2.6640 C   0  0  0  0  0  0  0  0  0  0  0  0
    4.9732   -1.2081   -2.2906 C   0  0  0  0  0  3  0  0  0  0  0  0
    3.1218   -0.5590   -2.8559 H   0  0  0  0  0  0  0  0  0  0  0  0
    3.7902    0.3594   -0.2436 H   0  0  0  0  0  0  0  0  0  0  0  0
    2.1806   -0.0484   -0.8052 H   0  0  0  0  0  0  0  0  0  0  0  0
    2.3590   -2.3884    0.1212 H   0  0  0  0  0  0  0  0  0  0  0  0
    4.8750   -1.0478    1.3484 H   0  0  0  0  0  0  0  0  0  0  0  0
    4.4085   -3.8707    0.2215 H   0  0  0  0  0  0  0  0  0  0  0  0
    6.8187   -1.9307    0.5206 H   0  0  0  0  0  0  0  0  0  0  0  0
    6.0518   -4.2235   -1.3878 H   0  0  0  0  0  0  0  0  0  0  0  0
    8.0794   -2.6937   -2.4428 H   0  0  0  0  0  0  0  0  0  0  0  0
    6.7311   -1.0089   -3.5093 H   0  0  0  0  0  0  0  0  0  0  0  0
  1  2  1  0  0  0  0
  1 10  2  3  0  0  0
  1 11  1  0  0  0  0
  2  3  1  0  0  0  0
  2 12  1  0  0  0  0
  2 13  1  0  0  0  0
  3  4  1  0  0  0  0
  3 14  1  0  0  0  0
  4  5  2  3  0  0  0
  4 15  1  0  0  0  0
  5  6  1  0  0  0  0
  5 16  1  0  0  0  0
  6  7  2  3  0  0  0
  6 17  1  0  0  0  0
  7  8  1  0  0  0  0
  7 18  1  0  0  0  0
  8  9  2  3  0  0  0
  8 19  1  0  0  0  0
  9 10  1  0  0  0  0
  9 20  1  0  0  0  0
M  END
$$$$
