
 OpenBabel04232216513D

 69 70  0  0  1  0  0  0  0  0999 V2000
    7.0414    6.7129    5.1155 C   0  0  0  0  0  0  0  0  0  0  0  0
    8.4852    6.7530    4.6426 C   0  0  0  0  0  0  0  0  0  0  0  0
    9.1398    5.3734    4.5860 C   0  0  0  0  0  0  0  0  0  0  0  0
    8.4552    4.3863    3.6399 C   0  0  3  0  0  0  0  0  0  0  0  0
    8.4758    4.6681    2.1249 C   0  0  3  0  0  0  0  0  0  0  0  0
    9.8364    5.1666    1.6002 C   0  0  0  0  0  0  0  0  0  0  0  0
    9.8320    5.4494    0.0956 C   0  0  0  0  0  0  0  0  0  0  0  0
   11.2157    5.8677   -0.3791 C   0  0  0  0  0  0  0  0  0  0  0  0
    8.1803    3.2912    1.5783 C   0  0  0  0  0  3  0  0  0  0  0  0
    8.6598    2.2107    2.5206 C   0  0  3  0  0  0  0  0  0  0  0  0
    7.5370    1.1646    2.8333 C   0  0  0  0  0  0  0  0  0  0  0  0
    6.4857    1.2163    2.1844 O   0  0  0  0  0  0  0  0  0  0  0  0
    7.7550    0.1509    3.8037 N   0  0  0  0  0  0  0  0  0  0  0  0
    8.7458    0.3429    4.8793 C   0  0  0  0  0  0  0  0  0  0  0  0
   10.2374    0.2096    4.5272 C   0  0  0  0  0  0  0  0  0  0  0  0
   10.7002   -1.2348    4.3746 C   0  0  0  0  0  0  0  0  0  0  0  0
   10.7710   -1.6536    2.9042 C   0  0  0  0  0  0  0  0  0  0  0  0
   10.6975   -3.1743    2.7756 C   0  0  0  0  0  0  0  0  0  0  0  0
   10.1354   -3.6247    1.4220 C   0  0  0  0  0  0  0  0  0  0  0  0
    9.0758   -4.7200    1.5805 C   0  0  0  0  0  0  0  0  0  0  0  0
    7.6291   -4.2022    1.6520 C   0  0  0  0  0  0  0  0  0  0  0  0
    7.4015   -3.1328    2.7243 C   0  0  0  0  0  0  0  0  0  0  0  0
    5.9267   -2.7805    2.8804 C   0  0  0  0  0  0  0  0  0  0  0  0
    5.6558   -1.3044    3.1947 C   0  0  0  0  0  0  0  0  0  0  0  0
    6.5654   -0.6245    4.2368 C   0  0  0  0  0  0  0  0  0  0  0  0
    9.0925    3.0348    3.6983 C   0  0  0  0  0  3  0  0  0  0  0  0
    6.6741    7.7209    5.2966 H   0  0  0  0  0  0  0  0  0  0  0  0
    6.9404    6.1351    6.0426 H   0  0  0  0  0  0  0  0  0  0  0  0
    6.3857    6.2568    4.3554 H   0  0  0  0  0  0  0  0  0  0  0  0
    9.0593    7.3734    5.3405 H   0  0  0  0  0  0  0  0  0  0  0  0
    8.5399    7.2421    3.6640 H   0  0  0  0  0  0  0  0  0  0  0  0
    9.1365    4.9493    5.6004 H   0  0  0  0  0  0  0  0  0  0  0  0
   10.1989    5.4893    4.3253 H   0  0  0  0  0  0  0  0  0  0  0  0
    7.4141    4.2518    3.9673 H   0  0  0  0  0  0  0  0  0  0  0  0
    7.6791    5.3729    1.8590 H   0  0  0  0  0  0  0  0  0  0  0  0
   10.6218    4.4292    1.8157 H   0  0  0  0  0  0  0  0  0  0  0  0
   10.1181    6.0880    2.1175 H   0  0  0  0  0  0  0  0  0  0  0  0
    9.1138    6.2471   -0.1277 H   0  0  0  0  0  0  0  0  0  0  0  0
    9.5219    4.5617   -0.4706 H   0  0  0  0  0  0  0  0  0  0  0  0
   11.5642    6.7533    0.1612 H   0  0  0  0  0  0  0  0  0  0  0  0
   11.1983    6.1016   -1.4468 H   0  0  0  0  0  0  0  0  0  0  0  0
   11.9398    5.0621   -0.2179 H   0  0  0  0  0  0  0  0  0  0  0  0
    7.7432    3.0932    0.6096 H   0  0  0  0  0  0  0  0  0  0  0  0
    9.4999    1.7002    2.0416 H   0  0  0  0  0  0  0  0  0  0  0  0
    8.5394   -0.3753    5.6809 H   0  0  0  0  0  0  0  0  0  0  0  0
    8.5458    1.3144    5.3428 H   0  0  0  0  0  0  0  0  0  0  0  0
   10.8002    0.6533    5.3587 H   0  0  0  0  0  0  0  0  0  0  0  0
   10.5344    0.7714    3.6420 H   0  0  0  0  0  0  0  0  0  0  0  0
   10.0368   -1.8916    4.9455 H   0  0  0  0  0  0  0  0  0  0  0  0
   11.6998   -1.3405    4.8127 H   0  0  0  0  0  0  0  0  0  0  0  0
   11.7063   -1.2874    2.4604 H   0  0  0  0  0  0  0  0  0  0  0  0
    9.9590   -1.1773    2.3463 H   0  0  0  0  0  0  0  0  0  0  0  0
   10.0897   -3.5810    3.5905 H   0  0  0  0  0  0  0  0  0  0  0  0
   11.7009   -3.5954    2.9161 H   0  0  0  0  0  0  0  0  0  0  0  0
   10.9667   -4.0204    0.8272 H   0  0  0  0  0  0  0  0  0  0  0  0
    9.7224   -2.7878    0.8464 H   0  0  0  0  0  0  0  0  0  0  0  0
    9.2857   -5.3387    2.4633 H   0  0  0  0  0  0  0  0  0  0  0  0
    9.1333   -5.3905    0.7161 H   0  0  0  0  0  0  0  0  0  0  0  0
    6.9605   -5.0511    1.8256 H   0  0  0  0  0  0  0  0  0  0  0  0
    7.3604   -3.7792    0.6762 H   0  0  0  0  0  0  0  0  0  0  0  0
    7.9615   -2.2375    2.4500 H   0  0  0  0  0  0  0  0  0  0  0  0
    7.7785   -3.4840    3.6921 H   0  0  0  0  0  0  0  0  0  0  0  0
    5.4927   -3.4059    3.6709 H   0  0  0  0  0  0  0  0  0  0  0  0
    5.3724   -3.0291    1.9661 H   0  0  0  0  0  0  0  0  0  0  0  0
    4.6300   -1.2606    3.5864 H   0  0  0  0  0  0  0  0  0  0  0  0
    5.6222   -0.7750    2.2422 H   0  0  0  0  0  0  0  0  0  0  0  0
    6.9020   -1.4016    4.9343 H   0  0  0  0  0  0  0  0  0  0  0  0
    5.9566    0.0809    4.8166 H   0  0  0  0  0  0  0  0  0  0  0  0
   10.0439    2.8865    4.1900 H   0  0  0  0  0  0  0  0  0  0  0  0
  1  2  1  0  0  0  0
  1 27  1  0  0  0  0
  1 28  1  0  0  0  0
  1 29  1  0  0  0  0
  2  3  1  0  0  0  0
  2 30  1  0  0  0  0
  2 31  1  0  0  0  0
  3  4  1  0  0  0  0
  3 32  1  0  0  0  0
  3 33  1  0  0  0  0
  4  5  1  0  0  0  0
  4 26  1  0  0  0  0
  4 34  1  0  0  0  0
  5  6  1  0  0  0  0
  5  9  1  0  0  0  0
  5 35  1  0  0  0  0
  6  7  1  0  0  0  0
  6 36  1  0  0  0  0
  6 37  1  0  0  0  0
  7  8  1  0  0  0  0
  7 38  1  0  0  0  0
  7 39  1  0  0  0  0
  8 40  1  0  0  0  0
  8 41  1  0  0  0  0
  8 42  1  0  0  0  0
  9 10  1  0  0  0  0
  9 43  1  0  0  0  0
 10 11  1  0  0  0  0
 10 26  1  0  0  0  0
 10 44  1  0  0  0  0
 11 12  2  0  0  0  0
 11 13  1  0  0  0  0
 13 14  1  0  0  0  0
 13 25  1  0  0  0  0
 14 15  1  0  0  0  0
 14 45  1  0  0  0  0
 14 46  1  0  0  0  0
 15 16  1  0  0  0  0
 15 47  1  0  0  0  0
 15 48  1  0  0  0  0
 16 17  1  0  0  0  0
 16 49  1  0  0  0  0
 16 50  1  0  0  0  0
 17 18  1  0  0  0  0
 17 51  1  0  0  0  0
 17 52  1  0  0  0  0
 18 19  1  0  0  0  0
 18 53  1  0  0  0  0
 18 54  1  0  0  0  0
 19 20  1  0  0  0  0
 19 55  1  0  0  0  0
 19 56  1  0  0  0  0
 20 21  1  0  0  0  0
 20 57  1  0  0  0  0
 20 58  1  0  0  0  0
 21 22  1  0  0  0  0
 21 59  1  0  0  0  0
 21 60  1  0  0  0  0
 22 23  1  0  0  0  0
 22 61  1  0  0  0  0
 22 62  1  0  0  0  0
 23 24  1  0  0  0  0
 23 63  1  0  0  0  0
 23 64  1  0  0  0  0
 24 25  1  0  0  0  0
 24 65  1  0  0  0  0
 24 66  1  0  0  0  0
 25 67  1  0  0  0  0
 25 68  1  0  0  0  0
 26 69  1  0  0  0  0
M  END
$$$$
