
 OpenBabel04232216433D

 33 35  0  0  0  0  0  0  0  0999 V2000
    4.1176    1.3617   -2.7080 C   0  0  0  0  0  0  0  0  0  0  0  0
    2.6756    1.2513   -2.3577 C   0  0  0  0  0  0  0  0  0  0  0  0
    1.9705    0.1737   -1.9232 C   0  0  0  0  0  0  0  0  0  0  0  0
    2.5960   -1.0597   -1.5312 C   0  0  0  0  0  0  0  0  0  0  0  0
    3.2267   -1.0479   -0.3328 C   0  0  0  0  0  0  0  0  0  0  0  0
    4.6781   -0.7937   -0.4071 C   0  0  0  0  0  0  0  0  0  0  0  0
    5.3601   -1.7095   -1.1718 N   0  0  0  0  0  0  0  0  0  0  0  0
    6.1965   -1.3523   -2.2394 C   0  0  0  0  0  0  0  0  0  0  0  0
    6.9310   -2.3824   -2.7168 N   0  0  0  0  0  0  0  0  0  0  0  0
    7.9503   -2.0583   -3.5110 C   0  0  0  0  0  0  0  0  0  0  0  0
    8.2606   -0.7579   -3.8461 C   0  0  0  0  0  0  0  0  0  0  0  0
    7.4401    0.3338   -3.4312 C   0  0  0  0  0  0  0  0  0  0  0  0
    8.0158    1.7169   -3.6233 C   0  0  0  0  0  0  0  0  0  0  0  0
    8.7579    1.9733   -4.9644 C   0  0  0  0  0  0  0  0  0  0  0  0
    9.5789    3.1948   -4.9167 N   0  0  0  0  0  0  0  0  0  0  0  0
    6.3039    0.0219   -2.6526 C   0  0  0  0  0  0  0  0  0  0  0  0
    4.9626    0.5020   -0.5742 C   0  0  0  0  0  0  0  0  0  0  0  0
    5.1956    0.8952   -1.9984 C   0  0  0  0  0  0  0  0  0  0  0  0
    4.3219    1.9270   -3.6197 H   0  0  0  0  0  0  0  0  0  0  0  0
    2.0862    2.1365   -2.6258 H   0  0  0  0  0  0  0  0  0  0  0  0
    0.9024    0.2229   -1.8039 H   0  0  0  0  0  0  0  0  0  0  0  0
    3.0840   -1.5542   -2.3782 H   0  0  0  0  0  0  0  0  0  0  0  0
    2.7689   -0.4778    0.4786 H   0  0  0  0  0  0  0  0  0  0  0  0
    5.2562   -2.6969   -1.0170 H   0  0  0  0  0  0  0  0  0  0  0  0
    8.5784   -2.8913   -3.8235 H   0  0  0  0  0  0  0  0  0  0  0  0
    9.1995   -0.6111   -4.3633 H   0  0  0  0  0  0  0  0  0  0  0  0
    8.7366    1.8553   -2.8077 H   0  0  0  0  0  0  0  0  0  0  0  0
    7.2409    2.4810   -3.4965 H   0  0  0  0  0  0  0  0  0  0  0  0
    8.0338    2.0399   -5.7862 H   0  0  0  0  0  0  0  0  0  0  0  0
    9.4470    1.1662   -5.2185 H   0  0  0  0  0  0  0  0  0  0  0  0
    8.9768    4.0085   -4.8006 H   0  0  0  0  0  0  0  0  0  0  0  0
   10.0581    3.3025   -5.8125 H   0  0  0  0  0  0  0  0  0  0  0  0
    5.8386    0.8965   -0.0331 H   0  0  0  0  0  0  0  0  0  0  0  0
  1  2  1  0  0  0  0
  1 18  2  0  0  0  0
  1 19  1  0  0  0  0
  2  3  2  0  0  0  0
  2 20  1  0  0  0  0
  3  4  1  0  0  0  0
  3 21  1  0  0  0  0
  4  5  2  0  0  0  0
  4 22  1  0  0  0  0
  5  6  1  0  0  0  0
  5 23  1  0  0  0  0
  6  7  1  0  0  0  0
  6 17  2  0  0  0  0
  7  8  1  0  0  0  0
  7 24  1  0  0  0  0
  8  9  1  0  0  0  0
  8 16  2  0  0  0  0
  9 10  2  0  0  0  0
 10 11  1  0  0  0  0
 10 25  1  0  0  0  0
 11 12  2  0  0  0  0
 11 26  1  0  0  0  0
 12 13  1  0  0  0  0
 12 16  1  0  0  0  0
 13 14  1  0  0  0  0
 13 27  1  0  0  0  0
 13 28  1  0  0  0  0
 14 15  1  0  0  0  0
 14 29  1  0  0  0  0
 14 30  1  0  0  0  0
 15 31  1  0  0  0  0
 15 32  1  0  0  0  0
 16 18  1  0  0  0  0
 17 18  1  0  0  0  0
 17 33  1  0  0  0  0
M  END
$$$$
