
 OpenBabel04232216443D

 57 57  0  0  0  0  0  0  0  0999 V2000
    6.8549   -0.9302    1.8314 C   0  0  0  0  0  0  0  0  0  0  0  0
    7.3275    0.3127    2.6586 C   0  0  0  0  0  0  0  0  0  0  0  0
    6.0998    1.1076    2.7006 C   0  0  0  0  0  0  0  0  0  0  0  0
    4.3457    0.8040    2.9029 C   0  0  0  0  0  0  0  0  0  0  0  0
    3.0651    1.1391    1.9040 C   0  0  0  0  0  0  0  0  0  0  0  0
    5.8700    2.0450    1.4418 C   0  0  0  0  0  0  0  0  0  0  0  0
    5.5884    3.4287    2.0293 C   0  0  0  0  0  0  0  0  0  0  0  0
    6.9123    3.7499    2.6983 C   0  0  0  0  0  0  0  0  0  0  0  0
    6.8243    4.1073    4.1673 C   0  0  0  0  0  0  0  0  0  0  0  0
    7.9894    3.4210    4.8826 C   0  0  0  0  0  0  0  0  0  0  0  0
    9.0690    4.3852    5.3227 C   0  0  0  0  0  0  0  0  0  0  0  0
   10.0826    4.4465    4.2098 C   0  0  0  0  0  0  0  0  0  0  0  0
   10.2092    5.3754    3.4444 O   0  0  0  0  0  0  0  0  0  0  0  0
   10.9600    3.1774    4.0847 C   0  0  0  0  0  0  0  0  0  0  0  0
   10.5097    2.2890    3.1658 C   0  0  0  0  0  0  0  0  0  0  0  0
   10.2058    0.8232    3.5645 C   0  0  0  0  0  0  0  0  0  0  0  0
   11.5669    0.0881    4.3056 N   0  0  0  0  0  0  0  0  0  0  0  0
   13.2811    0.5671    4.7348 C   0  0  0  0  0  0  0  0  0  0  0  0
   14.9030   -0.3731    5.0588 C   0  0  0  0  0  0  0  0  0  0  0  0
   16.7262   -0.0672    4.8321 C   0  0  0  0  0  0  0  0  0  0  0  0
   17.9626   -1.1338    5.4425 C   0  0  0  0  0  0  0  0  0  0  0  0
   19.4662   -1.4753    5.0489 C   0  0  0  0  0  0  0  0  0  0  0  0
   20.2292   -0.6096    4.3522 O   0  0  0  0  0  0  0  0  0  0  0  0
   20.0096   -2.5395    5.3766 O   0  0  0  0  0  0  0  0  0  0  0  0
    8.8879    0.2100    3.3316 N   0  0  0  0  0  0  0  0  0  0  0  0
    5.7489   -0.9605    1.7108 H   0  0  0  0  0  0  0  0  0  0  0  0
    7.0933   -1.9007    2.2573 H   0  0  0  0  0  0  0  0  0  0  0  0
    7.1963   -0.8375    0.7945 H   0  0  0  0  0  0  0  0  0  0  0  0
    4.0985    1.5152    3.7090 H   0  0  0  0  0  0  0  0  0  0  0  0
    4.1456   -0.1856    3.3236 H   0  0  0  0  0  0  0  0  0  0  0  0
    3.1467    2.0382    1.2744 H   0  0  0  0  0  0  0  0  0  0  0  0
    2.1519    1.3447    2.5005 H   0  0  0  0  0  0  0  0  0  0  0  0
    2.7721    0.3045    1.2488 H   0  0  0  0  0  0  0  0  0  0  0  0
    5.0667    1.7106    0.7743 H   0  0  0  0  0  0  0  0  0  0  0  0
    6.7463    2.0489    0.7889 H   0  0  0  0  0  0  0  0  0  0  0  0
    4.7495    3.4265    2.7366 H   0  0  0  0  0  0  0  0  0  0  0  0
    5.3287    4.1638    1.2627 H   0  0  0  0  0  0  0  0  0  0  0  0
    7.5337    4.3952    2.0845 H   0  0  0  0  0  0  0  0  0  0  0  0
    7.5076    2.8421    2.6523 H   0  0  0  0  0  0  0  0  0  0  0  0
    5.9039    3.7441    4.6364 H   0  0  0  0  0  0  0  0  0  0  0  0
    6.8346    5.1956    4.2542 H   0  0  0  0  0  0  0  0  0  0  0  0
    8.4500    2.7221    4.1922 H   0  0  0  0  0  0  0  0  0  0  0  0
    7.6589    2.7470    5.6751 H   0  0  0  0  0  0  0  0  0  0  0  0
    9.5379    4.0301    6.2481 H   0  0  0  0  0  0  0  0  0  0  0  0
    8.6676    5.3854    5.5336 H   0  0  0  0  0  0  0  0  0  0  0  0
   11.2107    2.8635    5.0930 H   0  0  0  0  0  0  0  0  0  0  0  0
   11.1003    2.2974    2.2460 H   0  0  0  0  0  0  0  0  0  0  0  0
   11.1809   -0.1176    5.2333 H   0  0  0  0  0  0  0  0  0  0  0  0
   13.0403    0.4852    5.8094 H   0  0  0  0  0  0  0  0  0  0  0  0
   13.4417    1.6488    4.6530 H   0  0  0  0  0  0  0  0  0  0  0  0
   14.7641   -1.4154    4.7716 H   0  0  0  0  0  0  0  0  0  0  0  0
   14.9342   -0.3423    6.1653 H   0  0  0  0  0  0  0  0  0  0  0  0
   16.9670    0.8777    5.3465 H   0  0  0  0  0  0  0  0  0  0  0  0
   16.9518    0.0602    3.7686 H   0  0  0  0  0  0  0  0  0  0  0  0
   17.5417   -2.1453    5.3416 H   0  0  0  0  0  0  0  0  0  0  0  0
   18.0914   -0.9124    6.5165 H   0  0  0  0  0  0  0  0  0  0  0  0
   19.9105    0.2713    4.2660 H   0  0  0  0  0  0  0  0  0  0  0  0
  1  2  1  0  0  0  0
  1 26  1  0  0  0  0
  1 27  1  0  0  0  0
  1 28  1  0  0  0  0
  2  3  2  3  0  0  0
  2 25  1  0  0  0  0
  3  4  1  0  0  0  0
  3  6  1  0  0  0  0
  4  5  1  0  0  0  0
  4 29  1  0  0  0  0
  4 30  1  0  0  0  0
  5 31  1  0  0  0  0
  5 32  1  0  0  0  0
  5 33  1  0  0  0  0
  6  7  1  0  0  0  0
  6 34  1  0  0  0  0
  6 35  1  0  0  0  0
  7  8  1  0  0  0  0
  7 36  1  0  0  0  0
  7 37  1  0  0  0  0
  8  9  1  0  0  0  0
  8 38  1  0  0  0  0
  8 39  1  0  0  0  0
  9 10  1  0  0  0  0
  9 40  1  0  0  0  0
  9 41  1  0  0  0  0
 10 11  1  0  0  0  0
 10 42  1  0  0  0  0
 10 43  1  0  0  0  0
 11 12  1  0  0  0  0
 11 44  1  0  0  0  0
 11 45  1  0  0  0  0
 12 13  2  0  0  0  0
 12 14  1  0  0  0  0
 14 15  2  3  0  0  0
 14 46  1  0  0  0  0
 15 16  1  0  0  0  0
 15 47  1  0  0  0  0
 16 17  1  0  0  0  0
 16 25  2  3  0  0  0
 17 18  1  0  0  0  0
 17 48  1  0  0  0  0
 18 19  1  0  0  0  0
 18 49  1  0  0  0  0
 18 50  1  0  0  0  0
 19 20  1  0  0  0  0
 19 51  1  0  0  0  0
 19 52  1  0  0  0  0
 20 21  1  0  0  0  0
 20 53  1  0  0  0  0
 20 54  1  0  0  0  0
 21 22  1  0  0  0  0
 21 55  1  0  0  0  0
 21 56  1  0  0  0  0
 22 23  1  0  0  0  0
 22 24  2  0  0  0  0
 23 57  1  0  0  0  0
M  END
$$$$
