
 OpenBabel04232216433D

 87 88  0  0  0  0  0  0  0  0999 V2000
    7.7682   -0.2706   -5.0524 C   0  0  0  0  0  0  0  0  0  0  0  0
    6.8825   -0.1866   -3.7680 C   0  0  0  0  0  0  0  0  0  0  0  0
    5.7396   -0.8419   -3.3435 C   0  0  0  0  0  0  0  0  0  0  0  0
    5.3123   -0.9325   -1.8898 C   0  0  0  0  0  0  0  0  0  0  0  0
    5.5899   -2.0142   -1.0915 C   0  0  0  0  0  0  0  0  0  0  0  0
    6.6775   -1.9255   -0.2065 N   0  0  0  0  0  0  0  0  0  0  0  0
    6.8356   -0.8675    0.7044 N   0  0  0  0  0  0  0  0  0  0  0  0
    7.9424   -1.2994    1.5747 C   0  0  0  0  0  0  0  0  0  0  0  0
    8.0322   -0.4433    2.8315 C   0  0  0  0  0  0  0  0  0  0  0  0
    8.7578   -1.2083    3.9388 C   0  0  0  0  0  0  0  0  0  0  0  0
    7.7999   -2.1156    4.5656 N   0  0  0  0  0  0  0  0  0  0  0  0
    8.4080   -2.9221    5.6160 C   0  0  0  0  0  0  0  0  0  0  0  0
    7.3878   -3.9322    6.1509 C   0  0  0  0  0  0  0  0  0  0  0  0
    7.1093   -5.0344    5.1304 C   0  0  0  0  0  0  0  0  0  0  0  0
    6.0505   -6.0283    5.6062 C   0  0  0  0  0  0  0  0  0  0  0  0
    5.7816   -7.0581    4.5020 C   0  0  0  0  0  0  0  0  0  0  0  0
    4.7816   -6.5014    3.4851 C   0  0  0  0  0  0  0  0  0  0  0  0
    4.8917   -7.1487    2.1042 C   0  0  0  0  0  0  0  0  0  0  0  0
    4.1256   -6.3065    1.0621 C   0  0  0  0  0  0  0  0  0  0  0  0
    5.0852   -5.4567    0.2047 C   0  0  0  0  0  0  0  0  0  0  0  0
    4.4060   -4.2587   -0.5207 C   0  0  0  0  0  0  0  0  0  0  0  0
    5.3517   -3.4474   -1.4306 C   0  0  0  0  0  0  0  0  0  0  0  0
    6.0640   -4.1202   -2.3533 C   0  0  0  0  0  0  0  0  0  0  0  0
    7.1695   -3.5632   -3.0680 C   0  0  0  0  0  0  0  0  0  0  0  0
    7.8268   -4.1977   -4.0309 C   0  0  0  0  0  0  0  0  0  0  0  0
    8.8989   -3.5368   -4.7053 C   0  0  0  0  0  0  0  0  0  0  0  0
    9.5104   -4.1305   -5.7256 C   0  0  0  0  0  0  0  0  0  0  0  0
   10.6308   -3.5288   -6.3569 C   0  0  0  0  0  0  0  0  0  0  0  0
   11.2525   -4.1184   -7.3780 C   0  0  0  0  0  0  0  0  0  0  0  0
   12.4530   -3.5260   -7.8429 C   0  0  0  0  0  0  0  0  0  0  0  0
   13.1803   -3.9350   -8.8822 C   0  0  0  0  0  0  0  0  0  0  0  0
   14.2301   -3.0313   -9.3171 C   0  0  0  0  0  0  0  0  0  0  0  0
   13.7715   -1.9579  -10.0009 C   0  0  0  0  0  0  0  0  0  0  0  0
   13.2734   -0.6732   -9.3851 C   0  0  0  0  0  0  0  0  0  0  0  0
   12.1824   -0.3276   -8.6363 C   0  0  0  0  0  0  0  0  0  0  0  0
   10.9307   -0.3007   -7.7695 C   0  0  0  0  0  0  0  0  0  0  0  0
    9.8316   -0.2224   -6.9294 C   0  0  0  0  0  0  0  0  0  0  0  0
    8.3976   -0.4193   -6.2793 C   0  0  0  0  0  0  0  0  0  0  0  0
    6.8075   -0.6777   -5.4635 H   0  0  0  0  0  0  0  0  0  0  0  0
    7.3309    0.4527   -3.0013 H   0  0  0  0  0  0  0  0  0  0  0  0
    5.1471   -1.5109   -3.9668 H   0  0  0  0  0  0  0  0  0  0  0  0
    5.4032    0.0326   -1.3830 H   0  0  0  0  0  0  0  0  0  0  0  0
    7.5134   -1.9877   -0.8036 H   0  0  0  0  0  0  0  0  0  0  0  0
    5.9899   -0.7956    1.2765 H   0  0  0  0  0  0  0  0  0  0  0  0
    8.8970   -1.2408    1.0326 H   0  0  0  0  0  0  0  0  0  0  0  0
    7.8047   -2.3560    1.8420 H   0  0  0  0  0  0  0  0  0  0  0  0
    7.0318   -0.1543    3.1799 H   0  0  0  0  0  0  0  0  0  0  0  0
    8.5656    0.4859    2.6029 H   0  0  0  0  0  0  0  0  0  0  0  0
    9.1415   -0.5027    4.6813 H   0  0  0  0  0  0  0  0  0  0  0  0
    9.6066   -1.7654    3.5210 H   0  0  0  0  0  0  0  0  0  0  0  0
    7.3754   -2.7158    3.8610 H   0  0  0  0  0  0  0  0  0  0  0  0
    8.7323   -2.2699    6.4330 H   0  0  0  0  0  0  0  0  0  0  0  0
    9.2861   -3.4572    5.2346 H   0  0  0  0  0  0  0  0  0  0  0  0
    6.4555   -3.4188    6.4192 H   0  0  0  0  0  0  0  0  0  0  0  0
    7.7810   -4.3812    7.0699 H   0  0  0  0  0  0  0  0  0  0  0  0
    8.0430   -5.5718    4.9229 H   0  0  0  0  0  0  0  0  0  0  0  0
    6.7860   -4.5996    4.1801 H   0  0  0  0  0  0  0  0  0  0  0  0
    5.1239   -5.5018    5.8686 H   0  0  0  0  0  0  0  0  0  0  0  0
    6.4049   -6.5329    6.5113 H   0  0  0  0  0  0  0  0  0  0  0  0
    5.3818   -7.9779    4.9430 H   0  0  0  0  0  0  0  0  0  0  0  0
    6.7273   -7.3254    4.0144 H   0  0  0  0  0  0  0  0  0  0  0  0
    4.9137   -5.4198    3.3760 H   0  0  0  0  0  0  0  0  0  0  0  0
    3.7660   -6.6490    3.8753 H   0  0  0  0  0  0  0  0  0  0  0  0
    4.4797   -8.1641    2.1539 H   0  0  0  0  0  0  0  0  0  0  0  0
    5.9445   -7.2510    1.8130 H   0  0  0  0  0  0  0  0  0  0  0  0
    3.3877   -5.6675    1.5608 H   0  0  0  0  0  0  0  0  0  0  0  0
    3.5626   -6.9829    0.4075 H   0  0  0  0  0  0  0  0  0  0  0  0
    5.5471   -6.1381   -0.5215 H   0  0  0  0  0  0  0  0  0  0  0  0
    5.8976   -5.0719    0.8330 H   0  0  0  0  0  0  0  0  0  0  0  0
    3.9694   -3.6082    0.2466 H   0  0  0  0  0  0  0  0  0  0  0  0
    3.5704   -4.6338   -1.1256 H   0  0  0  0  0  0  0  0  0  0  0  0
    5.8559   -5.1708   -2.5407 H   0  0  0  0  0  0  0  0  0  0  0  0
    7.4986   -2.5663   -2.8085 H   0  0  0  0  0  0  0  0  0  0  0  0
    7.5644   -5.2074   -4.3211 H   0  0  0  0  0  0  0  0  0  0  0  0
    9.2047   -2.5456   -4.3702 H   0  0  0  0  0  0  0  0  0  0  0  0
    9.2076   -5.1154   -6.0600 H   0  0  0  0  0  0  0  0  0  0  0  0
   11.0036   -2.5921   -5.9406 H   0  0  0  0  0  0  0  0  0  0  0  0
   10.8867   -5.0279   -7.8384 H   0  0  0  0  0  0  0  0  0  0  0  0
   12.7648   -2.6179   -7.3261 H   0  0  0  0  0  0  0  0  0  0  0  0
   12.9436   -4.8115   -9.4782 H   0  0  0  0  0  0  0  0  0  0  0  0
   14.8285   -2.8238   -8.4145 H   0  0  0  0  0  0  0  0  0  0  0  0
   14.4217   -1.7891  -10.8781 H   0  0  0  0  0  0  0  0  0  0  0  0
   14.0298    0.0894   -9.6049 H   0  0  0  0  0  0  0  0  0  0  0  0
   11.6039   -1.1295   -9.1611 H   0  0  0  0  0  0  0  0  0  0  0  0
   11.4589    0.5533   -7.2615 H   0  0  0  0  0  0  0  0  0  0  0  0
    9.4984   -1.1408   -7.4937 H   0  0  0  0  0  0  0  0  0  0  0  0
    7.7347   -0.8343   -7.0592 H   0  0  0  0  0  0  0  0  0  0  0  0
  1  2  1  0  0  0  0
  1 38  2  3  0  0  0
  1 39  1  0  0  0  0
  2  3  2  3  0  0  0
  2 40  1  0  0  0  0
  3  4  1  0  0  0  0
  3 41  1  0  0  0  0
  4  5  2  3  0  0  0
  4 42  1  0  0  0  0
  5  6  1  0  0  0  0
  5 22  1  0  0  0  0
  6  7  1  0  0  0  0
  6 43  1  0  0  0  0
  7  8  1  0  0  0  0
  7 44  1  0  0  0  0
  8  9  1  0  0  0  0
  8 45  1  0  0  0  0
  8 46  1  0  0  0  0
  9 10  1  0  0  0  0
  9 47  1  0  0  0  0
  9 48  1  0  0  0  0
 10 11  1  0  0  0  0
 10 49  1  0  0  0  0
 10 50  1  0  0  0  0
 11 12  1  0  0  0  0
 11 51  1  0  0  0  0
 12 13  1  0  0  0  0
 12 52  1  0  0  0  0
 12 53  1  0  0  0  0
 13 14  1  0  0  0  0
 13 54  1  0  0  0  0
 13 55  1  0  0  0  0
 14 15  1  0  0  0  0
 14 56  1  0  0  0  0
 14 57  1  0  0  0  0
 15 16  1  0  0  0  0
 15 58  1  0  0  0  0
 15 59  1  0  0  0  0
 16 17  1  0  0  0  0
 16 60  1  0  0  0  0
 16 61  1  0  0  0  0
 17 18  1  0  0  0  0
 17 62  1  0  0  0  0
 17 63  1  0  0  0  0
 18 19  1  0  0  0  0
 18 64  1  0  0  0  0
 18 65  1  0  0  0  0
 19 20  1  0  0  0  0
 19 66  1  0  0  0  0
 19 67  1  0  0  0  0
 20 21  1  0  0  0  0
 20 68  1  0  0  0  0
 20 69  1  0  0  0  0
 21 22  1  0  0  0  0
 21 70  1  0  0  0  0
 21 71  1  0  0  0  0
 22 23  2  3  0  0  0
 23 24  1  0  0  0  0
 23 72  1  0  0  0  0
 24 25  2  3  0  0  0
 24 73  1  0  0  0  0
 25 26  1  0  0  0  0
 25 74  1  0  0  0  0
 26 27  2  3  0  0  0
 26 75  1  0  0  0  0
 27 28  1  0  0  0  0
 27 76  1  0  0  0  0
 28 29  2  3  0  0  0
 28 77  1  0  0  0  0
 29 30  1  0  0  0  0
 29 78  1  0  0  0  0
 30 31  2  3  0  0  0
 30 79  1  0  0  0  0
 31 32  1  0  0  0  0
 31 80  1  0  0  0  0
 32 33  2  3  0  0  0
 32 81  1  0  0  0  0
 33 34  1  0  0  0  0
 33 82  1  0  0  0  0
 34 35  2  3  0  0  0
 34 83  1  0  0  0  0
 35 36  1  0  0  0  0
 35 84  1  0  0  0  0
 36 37  2  3  0  0  0
 36 85  1  0  0  0  0
 37 38  1  0  0  0  0
 37 86  1  0  0  0  0
 38 87  1  0  0  0  0
M  END
$$$$
