
 OpenBabel04232216473D

 48 50  0  0  0  0  0  0  0  0999 V2000
    1.0827   -0.1968   -0.0751 C   0  0  0  0  0  0  0  0  0  0  0  0
    2.5786    0.0308   -0.1107 C   0  0  0  0  0  0  0  0  0  0  0  0
    3.3277   -1.1576   -0.1101 C   0  0  0  0  0  0  0  0  0  0  0  0
    4.7168   -1.1957   -0.0410 C   0  0  0  0  0  0  0  0  0  0  0  0
    5.3689   -2.4152    0.2072 N   0  0  0  0  0  0  0  0  0  0  0  0
    4.7343   -3.3625    1.1430 C   0  0  0  0  0  0  0  0  0  0  0  0
    5.5727   -3.4568    2.4136 C   0  0  0  0  0  0  0  0  0  0  0  0
    6.9082   -4.1725    2.2418 C   0  0  0  0  0  0  0  0  0  0  0  0
    7.7813   -3.6780    1.0792 C   0  0  0  0  0  0  0  0  0  0  0  0
    7.2076   -4.0148   -0.3005 C   0  0  0  0  0  0  0  0  0  0  0  0
    6.1529   -3.0398   -0.8654 C   0  0  0  0  0  0  0  0  0  0  0  0
    5.3866    0.0532   -0.1191 C   0  0  0  0  0  0  0  0  0  0  0  0
    6.8952    0.0410   -0.1764 C   0  0  0  0  0  0  0  0  0  0  0  0
    4.6692    1.3435   -0.0903 C   0  0  0  0  0  0  0  0  0  0  0  0
    5.2948    2.6574   -0.0298 C   0  0  0  0  0  0  0  0  0  0  0  0
    6.7717    2.9974    0.0338 C   0  0  0  0  0  0  0  0  0  0  0  0
    4.5297    3.8334   -0.0370 C   0  0  0  0  0  0  0  0  0  0  0  0
    3.1602    3.7977   -0.0497 C   0  0  0  0  0  0  0  0  0  0  0  0
    2.4883    2.5682   -0.0613 C   0  0  0  0  0  0  0  0  0  0  0  0
    0.9856    2.7163   -0.0347 C   0  0  0  0  0  0  0  0  0  0  0  0
    3.2166    1.3158   -0.0880 C   0  0  0  0  0  0  0  0  0  0  0  0
    0.8279   -1.2638   -0.0742 H   0  0  0  0  0  0  0  0  0  0  0  0
    0.6017    0.2168   -0.9622 H   0  0  0  0  0  0  0  0  0  0  0  0
    0.6521    0.1994    0.8484 H   0  0  0  0  0  0  0  0  0  0  0  0
    2.7891   -2.1004   -0.1366 H   0  0  0  0  0  0  0  0  0  0  0  0
    4.6138   -4.3505    0.6826 H   0  0  0  0  0  0  0  0  0  0  0  0
    3.7300   -3.0573    1.4552 H   0  0  0  0  0  0  0  0  0  0  0  0
    4.9924   -3.9993    3.1702 H   0  0  0  0  0  0  0  0  0  0  0  0
    5.7442   -2.4508    2.8155 H   0  0  0  0  0  0  0  0  0  0  0  0
    6.7290   -5.2485    2.1273 H   0  0  0  0  0  0  0  0  0  0  0  0
    7.4732   -4.0590    3.1753 H   0  0  0  0  0  0  0  0  0  0  0  0
    8.7495   -4.1881    1.1772 H   0  0  0  0  0  0  0  0  0  0  0  0
    7.9874   -2.6083    1.1828 H   0  0  0  0  0  0  0  0  0  0  0  0
    6.7793   -5.0240   -0.2718 H   0  0  0  0  0  0  0  0  0  0  0  0
    8.0368   -4.0708   -1.0208 H   0  0  0  0  0  0  0  0  0  0  0  0
    5.4893   -3.5845   -1.5447 H   0  0  0  0  0  0  0  0  0  0  0  0
    6.6580   -2.3086   -1.5035 H   0  0  0  0  0  0  0  0  0  0  0  0
    7.3558   -0.9190   -0.3726 H   0  0  0  0  0  0  0  0  0  0  0  0
    7.3040    0.3427    0.7871 H   0  0  0  0  0  0  0  0  0  0  0  0
    7.2347    0.6678   -1.0110 H   0  0  0  0  0  0  0  0  0  0  0  0
    7.4398    2.2298    0.3894 H   0  0  0  0  0  0  0  0  0  0  0  0
    6.9258    3.8075    0.7602 H   0  0  0  0  0  0  0  0  0  0  0  0
    7.1130    3.3466   -0.9462 H   0  0  0  0  0  0  0  0  0  0  0  0
    5.0155    4.8111   -0.0125 H   0  0  0  0  0  0  0  0  0  0  0  0
    2.6161    4.7382   -0.0320 H   0  0  0  0  0  0  0  0  0  0  0  0
    0.6778    3.7693   -0.0261 H   0  0  0  0  0  0  0  0  0  0  0  0
    0.5689    2.2869    0.8788 H   0  0  0  0  0  0  0  0  0  0  0  0
    0.5330    2.2924   -0.9334 H   0  0  0  0  0  0  0  0  0  0  0  0
  1  2  1  0  0  0  0
  1 22  1  0  0  0  0
  1 23  1  0  0  0  0
  1 24  1  0  0  0  0
  2  3  1  0  0  0  0
  2 21  2  0  0  0  0
  3  4  2  0  0  0  0
  3 25  1  0  0  0  0
  4  5  1  0  0  0  0
  4 12  1  0  0  0  0
  5  6  1  0  0  0  0
  5 11  1  0  0  0  0
  6  7  1  0  0  0  0
  6 26  1  0  0  0  0
  6 27  1  0  0  0  0
  7  8  1  0  0  0  0
  7 28  1  0  0  0  0
  7 29  1  0  0  0  0
  8  9  1  0  0  0  0
  8 30  1  0  0  0  0
  8 31  1  0  0  0  0
  9 10  1  0  0  0  0
  9 32  1  0  0  0  0
  9 33  1  0  0  0  0
 10 11  1  0  0  0  0
 10 34  1  0  0  0  0
 10 35  1  0  0  0  0
 11 36  1  0  0  0  0
 11 37  1  0  0  0  0
 12 13  1  0  0  0  0
 12 14  2  0  0  0  0
 13 38  1  0  0  0  0
 13 39  1  0  0  0  0
 13 40  1  0  0  0  0
 14 15  1  0  0  0  0
 14 21  1  0  0  0  0
 15 16  1  0  0  0  0
 15 17  2  0  0  0  0
 16 41  1  0  0  0  0
 16 42  1  0  0  0  0
 16 43  1  0  0  0  0
 17 18  1  0  0  0  0
 17 44  1  0  0  0  0
 18 19  2  0  0  0  0
 18 45  1  0  0  0  0
 19 20  1  0  0  0  0
 19 21  1  0  0  0  0
 20 46  1  0  0  0  0
 20 47  1  0  0  0  0
 20 48  1  0  0  0  0
M  END
$$$$
