
 OpenBabel04232216533D

199198  0  0  0  0  0  0  0  0999 V2000
    0.9017   -0.0629    0.1290 C   0  0  0  0  0  0  0  0  0  0  0  0
    2.4206   -0.0756    0.1206 C   0  0  0  0  0  0  0  0  0  0  0  0
    2.9510   -1.1951   -0.7672 C   0  0  0  0  0  0  0  0  0  0  0  0
    4.4747   -1.2057   -0.7754 C   0  0  0  0  0  0  0  0  0  0  0  0
    4.9956   -2.3257   -1.6660 C   0  0  0  0  0  0  0  0  0  0  0  0
    6.5170   -2.3368   -1.6713 C   0  0  0  0  0  0  0  0  0  0  0  0
    7.0339   -3.4580   -2.5588 C   0  0  0  0  0  0  0  0  0  0  0  0
    8.5539   -3.4672   -2.5650 C   0  0  0  0  0  0  0  0  0  0  0  0
    9.0672   -4.5895   -3.4508 C   0  0  0  0  0  0  0  0  0  0  0  0
   10.5858   -4.5979   -3.4540 C   0  0  0  0  0  0  0  0  0  0  0  0
   11.0978   -5.7168   -4.3431 C   0  0  0  0  0  0  0  0  0  0  0  0
   12.6153   -5.7216   -4.3465 C   0  0  0  0  0  0  0  0  0  0  0  0
   13.1274   -6.8399   -5.2358 C   0  0  0  0  0  0  0  0  0  0  0  0
   14.6446   -6.8415   -5.2400 C   0  0  0  0  0  0  0  0  0  0  0  0
   15.1556   -7.9600   -6.1282 C   0  0  0  0  0  0  0  0  0  0  0  0
   16.6728   -7.9607   -6.1338 C   0  0  0  0  0  0  0  0  0  0  0  0
   17.1828   -9.0788   -7.0233 C   0  0  0  0  0  0  0  0  0  0  0  0
   18.7012   -9.0786   -7.0301 C   0  0  0  0  0  0  0  0  0  0  0  0
   19.2028  -10.2000   -7.9259 C   0  0  0  0  0  0  0  0  0  0  0  0
   20.7289  -10.1979   -7.9217 C   0  0  0  0  0  0  0  0  0  0  0  0
   21.2378  -11.3259   -8.8065 C   0  0  0  0  0  0  0  0  0  0  0  0
   22.7519  -11.3212   -8.8210 C   0  0  0  0  0  0  0  0  0  0  0  0
   23.2453  -12.4438   -9.7059 C   0  0  0  0  0  0  0  0  0  0  0  0
   24.7741  -12.4422   -9.7146 C   0  0  0  0  0  0  0  0  0  0  0  0
   25.2884  -13.5641  -10.5974 C   0  0  0  0  0  0  0  0  0  0  0  0
   26.8055  -13.5641  -10.6007 C   0  0  0  0  0  0  0  0  0  0  0  0
   27.3182  -14.6836  -11.4882 C   0  0  0  0  0  0  0  0  0  0  0  0
   28.8368  -14.6810  -11.4959 C   0  0  0  0  0  0  0  0  0  0  0  0
   29.3492  -15.7982  -12.3870 C   0  0  0  0  0  0  0  0  0  0  0  0
   30.8682  -15.8042  -12.3954 C   0  0  0  0  0  0  0  0  0  0  0  0
   31.3764  -16.9309  -13.2779 C   0  0  0  0  0  0  0  0  0  0  0  0
   32.8950  -16.9427  -13.2848 C   0  0  0  0  0  0  0  0  0  0  0  0
   33.4062  -18.0693  -14.1652 C   0  0  0  0  0  0  0  0  0  0  0  0
   34.9260  -18.0755  -14.1759 C   0  0  0  0  0  0  0  0  0  0  0  0
   35.4427  -19.1975  -15.0605 C   0  0  0  0  0  0  0  0  0  0  0  0
   36.9652  -19.2020  -15.0683 C   0  0  0  0  0  0  0  0  0  0  0  0
   37.4844  -20.3234  -15.9547 C   0  0  0  0  0  0  0  0  0  0  0  0
   39.0074  -20.3357  -15.9663 C   0  0  0  0  0  0  0  0  0  0  0  0
   39.5263  -21.4584  -16.8583 C   0  0  0  0  0  0  0  0  0  0  0  0
   41.0499  -21.4816  -16.8715 C   0  0  0  0  0  0  0  0  0  0  0  0
   41.5765  -22.6066  -17.7644 C   0  0  0  0  0  0  0  0  0  0  0  0
   43.1042  -22.6181  -17.7612 C   0  0  0  0  0  0  0  0  0  0  0  0
   43.6889  -23.7315  -18.6348 C   0  0  0  0  0  0  0  0  0  0  0  0
   45.5046  -23.6327  -18.4923 S   0  0  0  0  0  0  0  0  0  0  0  0
   46.0137  -24.9977  -19.5888 C   0  0  0  0  0  0  0  0  0  0  0  0
   47.8478  -25.0537  -19.5901 S   0  0  0  0  0  0  0  0  0  0  0  0
   48.1878  -26.3373  -20.8365 C   0  0  0  0  0  0  0  0  0  0  0  0
   47.5001  -25.8819  -22.4456 S   0  0  0  0  0  0  0  0  0  0  0  0
   48.1589  -27.2213  -23.4679 C   0  0  0  0  0  0  0  0  0  0  0  0
   47.5782  -27.0891  -25.1950 S   0  0  0  0  0  0  0  0  0  0  0  0
   48.2609  -25.4734  -25.6787 C   0  0  0  0  0  0  0  0  0  0  0  0
   50.0680  -25.4003  -25.8289 S   0  0  0  0  0  0  0  0  0  0  0  0
   50.4916  -26.7943  -27.2761 S   0  0  0  0  0  0  0  0  0  0  0  0
   49.6884  -26.0371  -29.0002 S   0  0  0  0  0  0  0  0  0  0  0  0
   50.9637  -24.5636  -29.6420 S   0  0  0  0  0  0  0  0  0  0  0  0
   49.9872  -23.7772  -31.2624 S   0  0  0  0  0  0  0  0  0  0  0  0
   50.7040  -21.8765  -31.5313 S   0  0  0  0  0  0  0  0  0  0  0  0
   50.3849  -21.5365  -33.5292 S   0  0  0  0  0  0  0  0  0  0  0  0
   51.1426  -19.6797  -33.9410 S   0  0  0  0  0  0  0  0  0  0  0  0
   53.1783  -19.9332  -34.0738 S   0  0  0  0  0  0  0  0  0  0  0  0
   53.4040  -20.9666  -35.5501 C   0  0  0  0  0  0  0  0  0  0  0  0
   52.6868  -20.3303  -37.0901 S   0  0  0  0  0  0  0  0  0  0  0  0
   53.7315  -18.8647  -37.4082 C   0  0  0  0  0  0  0  0  0  0  0  0
   53.2294  -18.1590  -39.0256 S   0  0  0  0  0  0  0  0  0  0  0  0
   54.3213  -16.7076  -39.1467 C   0  0  0  0  0  0  0  0  0  0  0  0
   56.0791  -17.1682  -39.2623 S   0  0  0  0  0  0  0  0  0  0  0  0
   56.8530  -15.5329  -39.4780 C   0  0  0  0  0  0  0  0  0  0  0  0
   56.5772  -14.4327  -38.0532 S   0  0  0  0  0  0  0  0  0  0  0  0
   57.5647  -12.9791  -38.5408 C   0  0  0  0  0  0  0  0  0  0  0  0
   56.9681  -12.2013  -40.0722 S   0  0  0  0  0  0  0  0  0  0  0  0
   58.1035  -10.7811  -40.1903 C   0  0  0  0  0  0  0  0  0  0  0  0
   59.8476  -11.2930  -40.2747 S   0  0  0  0  0  0  0  0  0  0  0  0
   60.6798   -9.6761  -40.4803 C   0  0  0  0  0  0  0  0  0  0  0  0
   60.4700   -8.6033  -39.0215 S   0  0  0  0  0  0  0  0  0  0  0  0
   61.3906   -7.1032  -39.5467 C   0  0  0  0  0  0  0  0  0  0  0  0
   60.6435   -6.3493  -41.0209 S   0  0  0  0  0  0  0  0  0  0  0  0
   61.7287   -4.8949  -41.2878 C   0  0  0  0  0  0  0  0  0  0  0  0
   61.1928   -4.1152  -42.8640 S   0  0  0  0  0  0  0  0  0  0  0  0
   62.3506   -2.7215  -43.0228 C   0  0  0  0  0  0  0  0  0  0  0  0
   64.0688   -3.2639  -43.2281 S   0  0  0  0  0  0  0  0  0  0  0  0
   64.8562   -1.6522  -43.4624 C   0  0  0  0  0  0  0  0  0  0  0  0
    0.5331    0.7435    0.7673 H   0  0  0  0  0  0  0  0  0  0  0  0
    0.5070   -1.0107    0.5101 H   0  0  0  0  0  0  0  0  0  0  0  0
    0.5092    0.0909   -0.8809 H   0  0  0  0  0  0  0  0  0  0  0  0
    2.7897   -0.2051    1.1447 H   0  0  0  0  0  0  0  0  0  0  0  0
    2.7904    0.8918   -0.2386 H   0  0  0  0  0  0  0  0  0  0  0  0
    2.5790   -1.0656   -1.7911 H   0  0  0  0  0  0  0  0  0  0  0  0
    2.5788   -2.1624   -0.4082 H   0  0  0  0  0  0  0  0  0  0  0  0
    4.8518   -1.3403    0.2458 H   0  0  0  0  0  0  0  0  0  0  0  0
    4.8526   -0.2412   -1.1361 H   0  0  0  0  0  0  0  0  0  0  0  0
    4.6232   -2.1920   -2.6891 H   0  0  0  0  0  0  0  0  0  0  0  0
    4.6193   -3.2919   -1.3081 H   0  0  0  0  0  0  0  0  0  0  0  0
    6.8927   -2.4695   -0.6493 H   0  0  0  0  0  0  0  0  0  0  0  0
    6.8952   -1.3729   -2.0332 H   0  0  0  0  0  0  0  0  0  0  0  0
    6.6598   -3.3273   -3.5815 H   0  0  0  0  0  0  0  0  0  0  0  0
    6.6588   -4.4235   -2.1971 H   0  0  0  0  0  0  0  0  0  0  0  0
    8.9309   -3.5980   -1.5432 H   0  0  0  0  0  0  0  0  0  0  0  0
    8.9316   -2.5038   -2.9292 H   0  0  0  0  0  0  0  0  0  0  0  0
    8.6937   -4.4587   -4.4739 H   0  0  0  0  0  0  0  0  0  0  0  0
    8.6907   -5.5540   -3.0889 H   0  0  0  0  0  0  0  0  0  0  0  0
   10.9611   -4.7327   -2.4320 H   0  0  0  0  0  0  0  0  0  0  0  0
   10.9643   -3.6333   -3.8139 H   0  0  0  0  0  0  0  0  0  0  0  0
   10.7229   -5.5833   -5.3654 H   0  0  0  0  0  0  0  0  0  0  0  0
   10.7221   -6.6825   -3.9831 H   0  0  0  0  0  0  0  0  0  0  0  0
   12.9916   -5.8559   -3.3249 H   0  0  0  0  0  0  0  0  0  0  0  0
   12.9918   -4.7565   -4.7070 H   0  0  0  0  0  0  0  0  0  0  0  0
   12.7513   -6.7072   -6.2578 H   0  0  0  0  0  0  0  0  0  0  0  0
   12.7534   -7.8056   -4.8750 H   0  0  0  0  0  0  0  0  0  0  0  0
   15.0214   -6.9740   -4.2183 H   0  0  0  0  0  0  0  0  0  0  0  0
   15.0190   -5.8762   -5.6014 H   0  0  0  0  0  0  0  0  0  0  0  0
   14.7781   -7.8284   -7.1497 H   0  0  0  0  0  0  0  0  0  0  0  0
   14.7822   -8.9256   -5.7660 H   0  0  0  0  0  0  0  0  0  0  0  0
   17.0507   -8.0935   -5.1127 H   0  0  0  0  0  0  0  0  0  0  0  0
   17.0461   -6.9949   -6.4959 H   0  0  0  0  0  0  0  0  0  0  0  0
   16.8035   -8.9477   -8.0436 H   0  0  0  0  0  0  0  0  0  0  0  0
   16.8104  -10.0449   -6.6594 H   0  0  0  0  0  0  0  0  0  0  0  0
   19.0772   -9.2072   -6.0126 H   0  0  0  0  0  0  0  0  0  0  0  0
   19.0730   -8.1147   -7.3950 H   0  0  0  0  0  0  0  0  0  0  0  0
   18.8277  -10.0668   -8.9418 H   0  0  0  0  0  0  0  0  0  0  0  0
   18.8323  -11.1633   -7.5554 H   0  0  0  0  0  0  0  0  0  0  0  0
   21.1039  -10.3273   -6.9147 H   0  0  0  0  0  0  0  0  0  0  0  0
   21.0959   -9.2400   -8.2976 H   0  0  0  0  0  0  0  0  0  0  0  0
   20.8633  -11.1928   -9.8342 H   0  0  0  0  0  0  0  0  0  0  0  0
   20.8617  -12.2896   -8.4495 H   0  0  0  0  0  0  0  0  0  0  0  0
   23.1386  -11.4535   -7.7912 H   0  0  0  0  0  0  0  0  0  0  0  0
   23.1214  -10.3564   -9.1888 H   0  0  0  0  0  0  0  0  0  0  0  0
   22.8718  -12.3096  -10.7328 H   0  0  0  0  0  0  0  0  0  0  0  0
   22.8877  -13.4011   -9.3446 H   0  0  0  0  0  0  0  0  0  0  0  0
   25.1514  -12.5723   -8.6913 H   0  0  0  0  0  0  0  0  0  0  0  0
   25.1517  -11.4784  -10.0765 H   0  0  0  0  0  0  0  0  0  0  0  0
   24.9122  -13.4338  -11.6201 H   0  0  0  0  0  0  0  0  0  0  0  0
   24.9146  -14.5275  -10.2330 H   0  0  0  0  0  0  0  0  0  0  0  0
   27.1824  -13.6941   -9.5791 H   0  0  0  0  0  0  0  0  0  0  0  0
   27.1785  -12.5987  -10.9645 H   0  0  0  0  0  0  0  0  0  0  0  0
   26.9392  -14.5542  -12.5088 H   0  0  0  0  0  0  0  0  0  0  0  0
   26.9466  -15.6493  -11.1234 H   0  0  0  0  0  0  0  0  0  0  0  0
   29.2144  -14.8156  -10.4747 H   0  0  0  0  0  0  0  0  0  0  0  0
   29.2072  -13.7143  -11.8548 H   0  0  0  0  0  0  0  0  0  0  0  0
   28.9721  -15.6624  -13.4090 H   0  0  0  0  0  0  0  0  0  0  0  0
   28.9751  -16.7610  -12.0281 H   0  0  0  0  0  0  0  0  0  0  0  0
   31.2449  -15.9320  -11.3733 H   0  0  0  0  0  0  0  0  0  0  0  0
   31.2441  -14.8416  -12.7627 H   0  0  0  0  0  0  0  0  0  0  0  0
   30.9997  -16.8029  -14.3002 H   0  0  0  0  0  0  0  0  0  0  0  0
   30.9981  -17.8919  -12.9110 H   0  0  0  0  0  0  0  0  0  0  0  0
   33.2708  -17.0691  -12.2617 H   0  0  0  0  0  0  0  0  0  0  0  0
   33.2734  -15.9799  -13.6510 H   0  0  0  0  0  0  0  0  0  0  0  0
   33.0256  -17.9468  -15.1868 H   0  0  0  0  0  0  0  0  0  0  0  0
   33.0331  -19.0314  -13.7927 H   0  0  0  0  0  0  0  0  0  0  0  0
   35.3033  -18.2030  -13.1522 H   0  0  0  0  0  0  0  0  0  0  0  0
   35.2997  -17.1107  -14.5423 H   0  0  0  0  0  0  0  0  0  0  0  0
   35.0666  -19.0676  -16.0828 H   0  0  0  0  0  0  0  0  0  0  0  0
   35.0689  -20.1620  -14.6969 H   0  0  0  0  0  0  0  0  0  0  0  0
   37.3409  -19.3295  -14.0455 H   0  0  0  0  0  0  0  0  0  0  0  0
   37.3361  -18.2366  -15.4319 H   0  0  0  0  0  0  0  0  0  0  0  0
   37.1055  -20.1930  -16.9756 H   0  0  0  0  0  0  0  0  0  0  0  0
   37.1075  -21.2868  -15.5913 H   0  0  0  0  0  0  0  0  0  0  0  0
   39.3826  -20.4673  -14.9441 H   0  0  0  0  0  0  0  0  0  0  0  0
   39.3813  -19.3696  -16.3267 H   0  0  0  0  0  0  0  0  0  0  0  0
   39.1485  -21.3203  -17.8788 H   0  0  0  0  0  0  0  0  0  0  0  0
   39.1438  -22.4205  -16.4974 H   0  0  0  0  0  0  0  0  0  0  0  0
   41.4232  -21.6136  -15.8478 H   0  0  0  0  0  0  0  0  0  0  0  0
   41.4287  -20.5155  -17.2293 H   0  0  0  0  0  0  0  0  0  0  0  0
   41.2055  -22.4711  -18.7862 H   0  0  0  0  0  0  0  0  0  0  0  0
   41.1968  -23.5708  -17.4021 H   0  0  0  0  0  0  0  0  0  0  0  0
   43.4496  -22.7362  -16.7266 H   0  0  0  0  0  0  0  0  0  0  0  0
   43.4631  -21.6411  -18.1137 H   0  0  0  0  0  0  0  0  0  0  0  0
   43.3848  -23.5990  -19.6769 H   0  0  0  0  0  0  0  0  0  0  0  0
   43.3471  -24.7107  -18.2849 H   0  0  0  0  0  0  0  0  0  0  0  0
   45.6297  -24.7925  -20.5911 H   0  0  0  0  0  0  0  0  0  0  0  0
   45.6166  -25.9473  -19.2205 H   0  0  0  0  0  0  0  0  0  0  0  0
   47.7976  -27.2989  -20.4940 H   0  0  0  0  0  0  0  0  0  0  0  0
   49.2766  -26.4173  -20.9226 H   0  0  0  0  0  0  0  0  0  0  0  0
   47.7927  -28.1766  -23.0801 H   0  0  0  0  0  0  0  0  0  0  0  0
   49.2517  -27.2427  -23.4485 H   0  0  0  0  0  0  0  0  0  0  0  0
   47.9423  -24.6960  -24.9799 H   0  0  0  0  0  0  0  0  0  0  0  0
   47.8209  -25.1923  -26.6405 H   0  0  0  0  0  0  0  0  0  0  0  0
   52.9491  -21.9427  -35.3488 H   0  0  0  0  0  0  0  0  0  0  0  0
   54.4732  -21.1533  -35.6882 H   0  0  0  0  0  0  0  0  0  0  0  0
   54.7795  -19.1718  -37.4452 H   0  0  0  0  0  0  0  0  0  0  0  0
   53.5806  -18.1226  -36.6202 H   0  0  0  0  0  0  0  0  0  0  0  0
   54.1325  -16.0536  -38.2922 H   0  0  0  0  0  0  0  0  0  0  0  0
   54.0374  -16.1699  -40.0584 H   0  0  0  0  0  0  0  0  0  0  0  0
   56.4779  -15.0888  -40.4033 H   0  0  0  0  0  0  0  0  0  0  0  0
   57.9286  -15.7026  -39.5887 H   0  0  0  0  0  0  0  0  0  0  0  0
   58.6072  -13.2930  -38.6248 H   0  0  0  0  0  0  0  0  0  0  0  0
   57.4848  -12.2541  -37.7250 H   0  0  0  0  0  0  0  0  0  0  0  0
   57.9249  -10.1267  -39.3341 H   0  0  0  0  0  0  0  0  0  0  0  0
   57.8444  -10.2370  -41.1037 H   0  0  0  0  0  0  0  0  0  0  0  0
   60.2987   -9.2099  -41.3917 H   0  0  0  0  0  0  0  0  0  0  0  0
   61.7466   -9.8789  -40.6124 H   0  0  0  0  0  0  0  0  0  0  0  0
   62.4415   -7.3617  -39.7056 H   0  0  0  0  0  0  0  0  0  0  0  0
   61.3280   -6.3903  -38.7189 H   0  0  0  0  0  0  0  0  0  0  0  0
   62.7683   -5.2241  -41.3597 H   0  0  0  0  0  0  0  0  0  0  0  0
   61.6097   -4.1895  -40.4608 H   0  0  0  0  0  0  0  0  0  0  0  0
   62.2445   -2.0473  -42.1687 H   0  0  0  0  0  0  0  0  0  0  0  0
   62.0573   -2.1740  -43.9244 H   0  0  0  0  0  0  0  0  0  0  0  0
   65.9365   -1.7989  -43.5461 H   0  0  0  0  0  0  0  0  0  0  0  0
   64.6612   -0.9983  -42.6086 H   0  0  0  0  0  0  0  0  0  0  0  0
   64.4994   -1.1793  -44.3806 H   0  0  0  0  0  0  0  0  0  0  0  0
  1  2  1  0  0  0  0
  1 82  1  0  0  0  0
  1 83  1  0  0  0  0
  1 84  1  0  0  0  0
  2  3  1  0  0  0  0
  2 85  1  0  0  0  0
  2 86  1  0  0  0  0
  3  4  1  0  0  0  0
  3 87  1  0  0  0  0
  3 88  1  0  0  0  0
  4  5  1  0  0  0  0
  4 89  1  0  0  0  0
  4 90  1  0  0  0  0
  5  6  1  0  0  0  0
  5 91  1  0  0  0  0
  5 92  1  0  0  0  0
  6  7  1  0  0  0  0
  6 93  1  0  0  0  0
  6 94  1  0  0  0  0
  7  8  1  0  0  0  0
  7 95  1  0  0  0  0
  7 96  1  0  0  0  0
  8  9  1  0  0  0  0
  8 97  1  0  0  0  0
  8 98  1  0  0  0  0
  9 10  1  0  0  0  0
  9 99  1  0  0  0  0
  9100  1  0  0  0  0
 10 11  1  0  0  0  0
 10101  1  0  0  0  0
 10102  1  0  0  0  0
 11 12  1  0  0  0  0
 11103  1  0  0  0  0
 11104  1  0  0  0  0
 12 13  1  0  0  0  0
 12105  1  0  0  0  0
 12106  1  0  0  0  0
 13 14  1  0  0  0  0
 13107  1  0  0  0  0
 13108  1  0  0  0  0
 14 15  1  0  0  0  0
 14109  1  0  0  0  0
 14110  1  0  0  0  0
 15 16  1  0  0  0  0
 15111  1  0  0  0  0
 15112  1  0  0  0  0
 16 17  1  0  0  0  0
 16113  1  0  0  0  0
 16114  1  0  0  0  0
 17 18  1  0  0  0  0
 17115  1  0  0  0  0
 17116  1  0  0  0  0
 18 19  1  0  0  0  0
 18117  1  0  0  0  0
 18118  1  0  0  0  0
 19 20  1  0  0  0  0
 19119  1  0  0  0  0
 19120  1  0  0  0  0
 20 21  1  0  0  0  0
 20121  1  0  0  0  0
 20122  1  0  0  0  0
 21 22  1  0  0  0  0
 21123  1  0  0  0  0
 21124  1  0  0  0  0
 22 23  1  0  0  0  0
 22125  1  0  0  0  0
 22126  1  0  0  0  0
 23 24  1  0  0  0  0
 23127  1  0  0  0  0
 23128  1  0  0  0  0
 24 25  1  0  0  0  0
 24129  1  0  0  0  0
 24130  1  0  0  0  0
 25 26  1  0  0  0  0
 25131  1  0  0  0  0
 25132  1  0  0  0  0
 26 27  1  0  0  0  0
 26133  1  0  0  0  0
 26134  1  0  0  0  0
 27 28  1  0  0  0  0
 27135  1  0  0  0  0
 27136  1  0  0  0  0
 28 29  1  0  0  0  0
 28137  1  0  0  0  0
 28138  1  0  0  0  0
 29 30  1  0  0  0  0
 29139  1  0  0  0  0
 29140  1  0  0  0  0
 30 31  1  0  0  0  0
 30141  1  0  0  0  0
 30142  1  0  0  0  0
 31 32  1  0  0  0  0
 31143  1  0  0  0  0
 31144  1  0  0  0  0
 32 33  1  0  0  0  0
 32145  1  0  0  0  0
 32146  1  0  0  0  0
 33 34  1  0  0  0  0
 33147  1  0  0  0  0
 33148  1  0  0  0  0
 34 35  1  0  0  0  0
 34149  1  0  0  0  0
 34150  1  0  0  0  0
 35 36  1  0  0  0  0
 35151  1  0  0  0  0
 35152  1  0  0  0  0
 36 37  1  0  0  0  0
 36153  1  0  0  0  0
 36154  1  0  0  0  0
 37 38  1  0  0  0  0
 37155  1  0  0  0  0
 37156  1  0  0  0  0
 38 39  1  0  0  0  0
 38157  1  0  0  0  0
 38158  1  0  0  0  0
 39 40  1  0  0  0  0
 39159  1  0  0  0  0
 39160  1  0  0  0  0
 40 41  1  0  0  0  0
 40161  1  0  0  0  0
 40162  1  0  0  0  0
 41 42  1  0  0  0  0
 41163  1  0  0  0  0
 41164  1  0  0  0  0
 42 43  1  0  0  0  0
 42165  1  0  0  0  0
 42166  1  0  0  0  0
 43 44  1  0  0  0  0
 43167  1  0  0  0  0
 43168  1  0  0  0  0
 44 45  1  0  0  0  0
 45 46  1  0  0  0  0
 45169  1  0  0  0  0
 45170  1  0  0  0  0
 46 47  1  0  0  0  0
 47 48  1  0  0  0  0
 47171  1  0  0  0  0
 47172  1  0  0  0  0
 48 49  1  0  0  0  0
 49 50  1  0  0  0  0
 49173  1  0  0  0  0
 49174  1  0  0  0  0
 50 51  1  0  0  0  0
 51 52  1  0  0  0  0
 51175  1  0  0  0  0
 51176  1  0  0  0  0
 52 53  1  0  0  0  0
 53 54  1  0  0  0  0
 54 55  1  0  0  0  0
 55 56  1  0  0  0  0
 56 57  1  0  0  0  0
 57 58  1  0  0  0  0
 58 59  1  0  0  0  0
 59 60  1  0  0  0  0
 60 61  1  0  0  0  0
 61 62  1  0  0  0  0
 61177  1  0  0  0  0
 61178  1  0  0  0  0
 62 63  1  0  0  0  0
 63 64  1  0  0  0  0
 63179  1  0  0  0  0
 63180  1  0  0  0  0
 64 65  1  0  0  0  0
 65 66  1  0  0  0  0
 65181  1  0  0  0  0
 65182  1  0  0  0  0
 66 67  1  0  0  0  0
 67 68  1  0  0  0  0
 67183  1  0  0  0  0
 67184  1  0  0  0  0
 68 69  1  0  0  0  0
 69 70  1  0  0  0  0
 69185  1  0  0  0  0
 69186  1  0  0  0  0
 70 71  1  0  0  0  0
 71 72  1  0  0  0  0
 71187  1  0  0  0  0
 71188  1  0  0  0  0
 72 73  1  0  0  0  0
 73 74  1  0  0  0  0
 73189  1  0  0  0  0
 73190  1  0  0  0  0
 74 75  1  0  0  0  0
 75 76  1  0  0  0  0
 75191  1  0  0  0  0
 75192  1  0  0  0  0
 76 77  1  0  0  0  0
 77 78  1  0  0  0  0
 77193  1  0  0  0  0
 77194  1  0  0  0  0
 78 79  1  0  0  0  0
 79 80  1  0  0  0  0
 79195  1  0  0  0  0
 79196  1  0  0  0  0
 80 81  1  0  0  0  0
 81197  1  0  0  0  0
 81198  1  0  0  0  0
 81199  1  0  0  0  0
M  END
$$$$
