
 OpenBabel04232216493D

 71 72  0  0  1  0  0  0  0  0999 V2000
    1.1221   -0.1489   -0.9211 C   0  0  0  0  0  0  0  0  0  0  0  0
    2.5833   -0.2918   -0.5025 C   0  0  3  0  0  0  0  0  0  0  0  0
    3.2360   -1.5595   -1.0930 C   0  0  0  0  0  0  0  0  0  0  0  0
    3.9341   -2.3658    0.0247 C   0  0  0  0  0  0  0  0  0  0  0  0
    5.3996   -2.6903   -0.2685 C   0  0  0  0  0  0  0  0  0  0  0  0
    6.3597   -2.2167    0.8398 C   0  0  0  0  0  0  0  0  0  0  0  0
    7.4358   -1.2537    0.3087 C   0  0  0  0  0  0  0  0  0  0  0  0
    7.6159    0.0289    1.1397 C   0  0  0  0  0  0  0  0  0  0  0  0
    7.4702    1.3098    0.3004 C   0  0  0  0  0  0  0  0  0  0  0  0
    6.4832    2.3630    0.8432 C   0  0  0  0  0  0  0  0  0  0  0  0
    5.2000    2.5078    0.0088 C   0  0  0  0  0  0  0  0  0  0  0  0
    3.8679    1.8310    0.4392 C   0  0  3  0  0  0  0  0  0  0  0  0
    3.8748    1.0946    1.8178 C   0  0  0  0  0  0  0  0  0  0  0  0
    4.6897    0.2238    2.0759 O   0  0  0  0  0  0  0  0  0  0  0  0
    2.7961    1.4225    2.8437 C   0  0  0  0  0  0  0  0  0  0  0  0
    2.4842    0.5433    3.8330 C   0  0  0  0  0  0  0  0  0  0  0  0
    2.9882   -0.6491    4.2329 N   0  0  0  0  0  0  0  0  0  0  0  0
    2.6017   -1.4070    5.4379 C   0  0  0  0  0  0  0  0  0  0  0  0
    1.7225   -0.6234    6.4263 C   0  0  0  0  0  0  0  0  0  0  0  0
    2.4342    0.5907    7.0673 C   0  0  0  0  0  0  0  0  0  0  0  0
    1.5311    1.8331    7.1709 C   0  0  0  0  0  0  0  0  0  0  0  0
    2.3233    3.1270    7.4220 C   0  0  0  0  0  0  0  0  0  0  0  0
    2.0657    4.2213    6.3738 C   0  0  0  0  0  0  0  0  0  0  0  0
    2.5924    3.8140    5.0008 C   0  0  0  0  0  0  0  0  0  0  0  0
    1.4954    3.4357    4.0032 C   0  0  0  0  0  0  0  0  0  0  0  0
    2.1277    2.7708    2.7626 C   0  0  0  0  0  0  0  0  0  0  0  0
    3.3948    0.9536   -0.7098 C   0  0  0  0  0  3  0  0  0  0  0  0
    0.5336   -0.9047   -0.3847 H   0  0  0  0  0  0  0  0  0  0  0  0
    0.9575   -0.3018   -1.9914 H   0  0  0  0  0  0  0  0  0  0  0  0
    0.7208    0.8307   -0.6412 H   0  0  0  0  0  0  0  0  0  0  0  0
    2.5189   -0.4377    0.5756 H   0  0  0  0  0  0  0  0  0  0  0  0
    3.9163   -1.3170   -1.9195 H   0  0  0  0  0  0  0  0  0  0  0  0
    2.4646   -2.2095   -1.5298 H   0  0  0  0  0  0  0  0  0  0  0  0
    3.3809   -3.3041    0.1597 H   0  0  0  0  0  0  0  0  0  0  0  0
    3.8449   -1.8678    0.9922 H   0  0  0  0  0  0  0  0  0  0  0  0
    5.6940   -2.2920   -1.2429 H   0  0  0  0  0  0  0  0  0  0  0  0
    5.4856   -3.7801   -0.3545 H   0  0  0  0  0  0  0  0  0  0  0  0
    6.8652   -3.1019    1.2477 H   0  0  0  0  0  0  0  0  0  0  0  0
    5.8264   -1.7968    1.6921 H   0  0  0  0  0  0  0  0  0  0  0  0
    7.2500   -1.0069   -0.7400 H   0  0  0  0  0  0  0  0  0  0  0  0
    8.3889   -1.7976    0.3134 H   0  0  0  0  0  0  0  0  0  0  0  0
    8.6392    0.0144    1.5392 H   0  0  0  0  0  0  0  0  0  0  0  0
    6.9810    0.0474    2.0259 H   0  0  0  0  0  0  0  0  0  0  0  0
    7.2464    1.0843   -0.7479 H   0  0  0  0  0  0  0  0  0  0  0  0
    8.4634    1.7809    0.2773 H   0  0  0  0  0  0  0  0  0  0  0  0
    7.0036    3.3270    0.7400 H   0  0  0  0  0  0  0  0  0  0  0  0
    6.2925    2.2642    1.9154 H   0  0  0  0  0  0  0  0  0  0  0  0
    5.4368    2.2397   -1.0296 H   0  0  0  0  0  0  0  0  0  0  0  0
    4.9868    3.5856   -0.0562 H   0  0  0  0  0  0  0  0  0  0  0  0
    3.1321    2.6407    0.4931 H   0  0  0  0  0  0  0  0  0  0  0  0
    1.6745    0.8551    4.4602 H   0  0  0  0  0  0  0  0  0  0  0  0
    3.7705   -1.0158    3.6819 H   0  0  0  0  0  0  0  0  0  0  0  0
    3.5084   -1.7657    5.9495 H   0  0  0  0  0  0  0  0  0  0  0  0
    2.0575   -2.2961    5.0959 H   0  0  0  0  0  0  0  0  0  0  0  0
    1.4054   -1.3024    7.2262 H   0  0  0  0  0  0  0  0  0  0  0  0
    0.7940   -0.3232    5.9264 H   0  0  0  0  0  0  0  0  0  0  0  0
    3.3385    0.8414    6.5031 H   0  0  0  0  0  0  0  0  0  0  0  0
    2.7711    0.3161    8.0737 H   0  0  0  0  0  0  0  0  0  0  0  0
    0.8125    1.6901    7.9863 H   0  0  0  0  0  0  0  0  0  0  0  0
    0.9219    1.9281    6.2721 H   0  0  0  0  0  0  0  0  0  0  0  0
    3.4022    2.9275    7.4558 H   0  0  0  0  0  0  0  0  0  0  0  0
    2.0568    3.5282    8.4054 H   0  0  0  0  0  0  0  0  0  0  0  0
    2.6019    5.1263    6.6895 H   0  0  0  0  0  0  0  0  0  0  0  0
    1.0029    4.4867    6.3340 H   0  0  0  0  0  0  0  0  0  0  0  0
    3.3217    3.0025    5.1091 H   0  0  0  0  0  0  0  0  0  0  0  0
    3.1525    4.6570    4.5749 H   0  0  0  0  0  0  0  0  0  0  0  0
    1.0078    4.3613    3.6712 H   0  0  0  0  0  0  0  0  0  0  0  0
    0.6941    2.8308    4.4375 H   0  0  0  0  0  0  0  0  0  0  0  0
    2.8993    3.4806    2.4574 H   0  0  0  0  0  0  0  0  0  0  0  0
    1.3671    2.7202    1.9784 H   0  0  0  0  0  0  0  0  0  0  0  0
    3.4721    1.3631   -1.7236 H   0  0  0  0  0  0  0  0  0  0  0  0
  1  2  1  0  0  0  0
  1 28  1  0  0  0  0
  1 29  1  0  0  0  0
  1 30  1  0  0  0  0
  2  3  1  0  0  0  0
  2 27  1  0  0  0  0
  2 31  1  0  0  0  0
  3  4  1  0  0  0  0
  3 32  1  0  0  0  0
  3 33  1  0  0  0  0
  4  5  1  0  0  0  0
  4 34  1  0  0  0  0
  4 35  1  0  0  0  0
  5  6  1  0  0  0  0
  5 36  1  0  0  0  0
  5 37  1  0  0  0  0
  6  7  1  0  0  0  0
  6 38  1  0  0  0  0
  6 39  1  0  0  0  0
  7  8  1  0  0  0  0
  7 40  1  0  0  0  0
  7 41  1  0  0  0  0
  8  9  1  0  0  0  0
  8 42  1  0  0  0  0
  8 43  1  0  0  0  0
  9 10  1  0  0  0  0
  9 44  1  0  0  0  0
  9 45  1  0  0  0  0
 10 11  1  0  0  0  0
 10 46  1  0  0  0  0
 10 47  1  0  0  0  0
 11 12  1  0  0  0  0
 11 48  1  0  0  0  0
 11 49  1  0  0  0  0
 12 13  1  0  0  0  0
 12 27  1  0  0  0  0
 12 50  1  0  0  0  0
 13 14  2  0  0  0  0
 13 15  1  0  0  0  0
 15 16  2  3  0  0  0
 15 26  1  0  0  0  0
 16 17  1  0  0  0  0
 16 51  1  0  0  0  0
 17 18  1  0  0  0  0
 17 52  1  0  0  0  0
 18 19  1  0  0  0  0
 18 53  1  0  0  0  0
 18 54  1  0  0  0  0
 19 20  1  0  0  0  0
 19 55  1  0  0  0  0
 19 56  1  0  0  0  0
 20 21  1  0  0  0  0
 20 57  1  0  0  0  0
 20 58  1  0  0  0  0
 21 22  1  0  0  0  0
 21 59  1  0  0  0  0
 21 60  1  0  0  0  0
 22 23  1  0  0  0  0
 22 61  1  0  0  0  0
 22 62  1  0  0  0  0
 23 24  1  0  0  0  0
 23 63  1  0  0  0  0
 23 64  1  0  0  0  0
 24 25  1  0  0  0  0
 24 65  1  0  0  0  0
 24 66  1  0  0  0  0
 25 26  1  0  0  0  0
 25 67  1  0  0  0  0
 25 68  1  0  0  0  0
 26 69  1  0  0  0  0
 26 70  1  0  0  0  0
 27 71  1  0  0  0  0
M  END
$$$$
