
 OpenBabel04232217023D

 84 83  0  0  0  0  0  0  0  0999 V2000
    7.9427    7.4814    2.4874 O   0  0  0  0  0  0  0  0  0  0  0  0
    7.7070    6.8289    1.2224 O   0  0  0  0  0  0  0  0  0  0  0  0
    7.8326    7.8580   -0.0970 S   0  0  0  0  0  0  0  0  0  0  0  0
    9.8509    8.0084   -0.2140 S   0  0  0  0  0  0  0  0  0  0  0  0
   10.6260    6.1047   -0.2881 S   0  0  0  0  0  0  0  0  0  0  0  0
   10.1672    5.6012   -1.8096 N   0  0  0  0  0  0  0  0  0  0  0  0
   10.8391    4.0953   -2.0420 S   0  0  0  0  0  0  0  0  0  0  0  0
   10.0951    3.5597   -3.8748 S   0  0  0  0  0  0  0  0  0  0  0  0
   10.8599    4.8506   -5.2939 S   0  0  0  0  0  0  0  0  0  0  0  0
   12.9243    4.6736   -5.3972 S   0  0  0  0  0  0  0  0  0  0  0  0
   13.5742    6.0503   -6.8463 S   0  0  0  0  0  0  0  0  0  0  0  0
   15.6797    6.0663   -6.8456 S   0  0  0  0  0  0  0  0  0  0  0  0
   16.3538    7.3784   -8.3409 S   0  0  0  0  0  0  0  0  0  0  0  0
   18.4662    7.3719   -8.3321 S   0  0  0  0  0  0  0  0  0  0  0  0
   19.1613    8.7003   -9.8193 S   0  0  0  0  0  0  0  0  0  0  0  0
   21.2726    8.6919   -9.8100 S   0  0  0  0  0  0  0  0  0  0  0  0
   21.9637   10.0198  -11.2966 S   0  0  0  0  0  0  0  0  0  0  0  0
   24.0759   10.0114  -11.2870 S   0  0  0  0  0  0  0  0  0  0  0  0
   24.7680   11.3387  -12.7733 S   0  0  0  0  0  0  0  0  0  0  0  0
   26.8776   11.3287  -12.7621 S   0  0  0  0  0  0  0  0  0  0  0  0
   27.5691   12.6576  -14.2477 S   0  0  0  0  0  0  0  0  0  0  0  0
   29.6779   12.6476  -14.2384 S   0  0  0  0  0  0  0  0  0  0  0  0
   30.3695   13.9752  -15.7250 S   0  0  0  0  0  0  0  0  0  0  0  0
   32.4792   13.9652  -15.7136 S   0  0  0  0  0  0  0  0  0  0  0  0
   33.1688   15.2955  -17.1997 S   0  0  0  0  0  0  0  0  0  0  0  0
   35.2783   15.2856  -17.1921 S   0  0  0  0  0  0  0  0  0  0  0  0
   35.9667   16.6146  -18.6799 S   0  0  0  0  0  0  0  0  0  0  0  0
   38.0769   16.6078  -18.6718 S   0  0  0  0  0  0  0  0  0  0  0  0
   38.7663   17.9362  -20.1592 S   0  0  0  0  0  0  0  0  0  0  0  0
   40.8763   17.9259  -20.1517 S   0  0  0  0  0  0  0  0  0  0  0  0
   41.5675   19.2572  -21.6351 S   0  0  0  0  0  0  0  0  0  0  0  0
   43.6800   19.2447  -21.6241 S   0  0  0  0  0  0  0  0  0  0  0  0
   44.3688   20.5722  -23.1108 S   0  0  0  0  0  0  0  0  0  0  0  0
   46.4746   20.5645  -23.1014 S   0  0  0  0  0  0  0  0  0  0  0  0
   47.1371   21.8967  -24.5935 S   0  0  0  0  0  0  0  0  0  0  0  0
   49.2985   21.8462  -24.5359 S   0  0  0  0  0  0  0  0  0  0  0  0
   49.9673   23.2111  -26.0645 S   0  0  0  0  0  0  0  0  0  0  0  0
   52.0766   23.2023  -26.0546 S   0  0  0  0  0  0  0  0  0  0  0  0
   52.7673   24.5300  -27.5411 S   0  0  0  0  0  0  0  0  0  0  0  0
   54.8766   24.5212  -27.5312 S   0  0  0  0  0  0  0  0  0  0  0  0
   55.5673   25.8490  -29.0177 S   0  0  0  0  0  0  0  0  0  0  0  0
   57.6766   25.8402  -29.0078 S   0  0  0  0  0  0  0  0  0  0  0  0
   58.3673   27.1680  -30.4943 S   0  0  0  0  0  0  0  0  0  0  0  0
   60.4766   27.1591  -30.4844 S   0  0  0  0  0  0  0  0  0  0  0  0
   61.1672   28.4869  -31.9709 S   0  0  0  0  0  0  0  0  0  0  0  0
   63.2766   28.4781  -31.9610 S   0  0  0  0  0  0  0  0  0  0  0  0
   63.9672   29.8059  -33.4475 S   0  0  0  0  0  0  0  0  0  0  0  0
   66.0766   29.7971  -33.4376 S   0  0  0  0  0  0  0  0  0  0  0  0
   66.7672   31.1249  -34.9241 S   0  0  0  0  0  0  0  0  0  0  0  0
   68.8766   31.1160  -34.9142 S   0  0  0  0  0  0  0  0  0  0  0  0
   69.5672   32.4438  -36.4007 S   0  0  0  0  0  0  0  0  0  0  0  0
   71.6766   32.4350  -36.3909 S   0  0  0  0  0  0  0  0  0  0  0  0
   72.3672   33.7628  -37.8773 S   0  0  0  0  0  0  0  0  0  0  0  0
   74.4766   33.7539  -37.8675 S   0  0  0  0  0  0  0  0  0  0  0  0
   75.1672   35.0817  -39.3539 S   0  0  0  0  0  0  0  0  0  0  0  0
   77.2766   35.0729  -39.3441 S   0  0  0  0  0  0  0  0  0  0  0  0
   77.9672   36.4007  -40.8305 S   0  0  0  0  0  0  0  0  0  0  0  0
   80.0766   36.3919  -40.8207 S   0  0  0  0  0  0  0  0  0  0  0  0
   80.7672   37.7197  -42.3071 S   0  0  0  0  0  0  0  0  0  0  0  0
   82.8766   37.7108  -42.2973 S   0  0  0  0  0  0  0  0  0  0  0  0
   83.5672   39.0386  -43.7837 S   0  0  0  0  0  0  0  0  0  0  0  0
   85.6766   39.0298  -43.7739 S   0  0  0  0  0  0  0  0  0  0  0  0
   86.3672   40.3576  -45.2603 S   0  0  0  0  0  0  0  0  0  0  0  0
   88.4765   40.3487  -45.2505 S   0  0  0  0  0  0  0  0  0  0  0  0
   89.1672   41.6765  -46.7369 S   0  0  0  0  0  0  0  0  0  0  0  0
   91.2765   41.6677  -46.7271 S   0  0  0  0  0  0  0  0  0  0  0  0
   91.9671   42.9955  -48.2135 S   0  0  0  0  0  0  0  0  0  0  0  0
   94.0764   42.9866  -48.2036 S   0  0  0  0  0  0  0  0  0  0  0  0
   94.7669   44.3143  -49.6900 S   0  0  0  0  0  0  0  0  0  0  0  0
   96.8759   44.3053  -49.6799 S   0  0  0  0  0  0  0  0  0  0  0  0
   97.5658   45.6329  -51.1662 S   0  0  0  0  0  0  0  0  0  0  0  0
   99.6739   45.6233  -51.1554 S   0  0  0  0  0  0  0  0  0  0  0  0
  100.3616   46.9502  -52.6408 S   0  0  0  0  0  0  0  0  0  0  0  0
  102.4667   46.9387  -52.6281 S   0  0  0  0  0  0  0  0  0  0  0  0
  103.1487   48.2627  -54.1119 S   0  0  0  0  0  0  0  0  0  0  0  0
  105.2443   48.2498  -54.0904 S   0  0  0  0  0  0  0  0  0  0  0  0
  105.9177   49.5643  -55.5696 S   0  0  0  0  0  0  0  0  0  0  0  0
  107.9960   49.4940  -55.5675 S   0  0  0  0  0  0  0  0  0  0  0  0
  108.6668   50.9096  -56.9266 S   0  0  0  0  0  0  0  0  0  0  0  0
  110.7290   50.7669  -56.9518 S   0  0  0  0  0  0  0  0  0  0  0  0
  111.3544   51.5304  -55.1512 S   0  0  0  0  0  0  0  0  0  0  0  0
    7.8335    6.6768    3.0467 H   0  0  0  0  0  0  0  0  0  0  0  0
   10.4816    6.2569   -2.5027 H   0  0  0  0  0  0  0  0  0  0  0  0
  112.6841   51.4253  -55.2753 H   0  0  0  0  0  0  0  0  0  0  0  0
  1  2  1  0  0  0  0
  1 82  1  0  0  0  0
  2  3  1  0  0  0  0
  3  4  1  0  0  0  0
  4  5  1  0  0  0  0
  5  6  1  0  0  0  0
  6  7  1  0  0  0  0
  6 83  1  0  0  0  0
  7  8  1  0  0  0  0
  8  9  1  0  0  0  0
  9 10  1  0  0  0  0
 10 11  1  0  0  0  0
 11 12  1  0  0  0  0
 12 13  1  0  0  0  0
 13 14  1  0  0  0  0
 14 15  1  0  0  0  0
 15 16  1  0  0  0  0
 16 17  1  0  0  0  0
 17 18  1  0  0  0  0
 18 19  1  0  0  0  0
 19 20  1  0  0  0  0
 20 21  1  0  0  0  0
 21 22  1  0  0  0  0
 22 23  1  0  0  0  0
 23 24  1  0  0  0  0
 24 25  1  0  0  0  0
 25 26  1  0  0  0  0
 26 27  1  0  0  0  0
 27 28  1  0  0  0  0
 28 29  1  0  0  0  0
 29 30  1  0  0  0  0
 30 31  1  0  0  0  0
 31 32  1  0  0  0  0
 32 33  1  0  0  0  0
 33 34  1  0  0  0  0
 34 35  1  0  0  0  0
 35 36  1  0  0  0  0
 36 37  1  0  0  0  0
 37 38  1  0  0  0  0
 38 39  1  0  0  0  0
 39 40  1  0  0  0  0
 40 41  1  0  0  0  0
 41 42  1  0  0  0  0
 42 43  1  0  0  0  0
 43 44  1  0  0  0  0
 44 45  1  0  0  0  0
 45 46  1  0  0  0  0
 46 47  1  0  0  0  0
 47 48  1  0  0  0  0
 48 49  1  0  0  0  0
 49 50  1  0  0  0  0
 50 51  1  0  0  0  0
 51 52  1  0  0  0  0
 52 53  1  0  0  0  0
 53 54  1  0  0  0  0
 54 55  1  0  0  0  0
 55 56  1  0  0  0  0
 56 57  1  0  0  0  0
 57 58  1  0  0  0  0
 58 59  1  0  0  0  0
 59 60  1  0  0  0  0
 60 61  1  0  0  0  0
 61 62  1  0  0  0  0
 62 63  1  0  0  0  0
 63 64  1  0  0  0  0
 64 65  1  0  0  0  0
 65 66  1  0  0  0  0
 66 67  1  0  0  0  0
 67 68  1  0  0  0  0
 68 69  1  0  0  0  0
 69 70  1  0  0  0  0
 70 71  1  0  0  0  0
 71 72  1  0  0  0  0
 72 73  1  0  0  0  0
 73 74  1  0  0  0  0
 74 75  1  0  0  0  0
 75 76  1  0  0  0  0
 76 77  1  0  0  0  0
 77 78  1  0  0  0  0
 78 79  1  0  0  0  0
 79 80  1  0  0  0  0
 80 81  1  0  0  0  0
 81 84  1  0  0  0  0
M  END
$$$$
