
 OpenBabel04232216513D

 53 54  0  0  0  0  0  0  0  0999 V2000
    3.4526   -1.0040   -0.3161 C   0  0  0  0  0  0  0  0  0  0  0  0
    4.5996   -1.9032   -0.8766 C   0  0  0  0  0  0  0  0  0  0  0  0
    5.9221   -1.1994   -1.4222 C   0  0  0  0  0  0  0  0  0  0  0  0
    6.6788   -1.3547   -2.8864 C   0  0  0  0  0  0  0  0  0  0  0  0
    6.2280   -0.4627   -3.8280 C   0  0  0  0  0  0  0  0  0  0  0  0
    4.7102   -0.4258   -4.1289 C   0  0  0  0  0  0  0  0  0  0  0  0
    4.3473   -0.1307   -5.5901 C   0  0  0  0  0  0  0  0  0  0  0  0
    4.8470   -1.1612   -6.5890 C   0  0  0  0  0  0  0  0  0  0  0  0
    6.8613    0.8612   -3.8244 C   0  0  0  0  0  0  0  0  0  0  0  0
    7.4287    1.4555   -4.8845 C   0  0  0  0  0  0  0  0  0  0  0  0
    8.5821    2.3523   -4.5448 C   0  0  0  0  0  0  0  0  0  0  0  0
    8.4423    3.5157   -4.2201 O   0  0  0  0  0  0  0  0  0  0  0  0
    9.9209    1.6044   -4.3707 C   0  0  0  0  0  0  0  0  0  0  0  0
   10.1636    0.8881   -5.4954 C   0  0  0  0  0  0  0  0  0  0  0  0
    9.9779   -0.5415   -5.6727 C   0  0  0  0  0  0  0  0  0  0  0  0
   10.2263   -1.4223   -4.6856 C   0  0  0  0  0  0  0  0  0  0  0  0
   11.7448   -1.7641   -4.6320 C   0  0  0  0  0  0  0  0  0  0  0  0
   12.7034   -0.7195   -4.0113 C   0  0  0  0  0  0  0  0  0  0  0  0
   12.4231    0.0499   -2.7205 C   0  0  0  0  0  0  0  0  0  0  0  0
   11.0709    0.5123   -2.1923 C   0  0  0  0  0  0  0  0  0  0  0  0
    9.8811    1.0304   -2.9828 C   0  0  0  0  0  0  0  0  0  0  0  0
    9.3514   -1.9294   -3.5487 C   0  0  0  0  0  0  0  0  0  0  0  0
    8.1306   -1.8941   -2.8927 C   0  0  0  0  0  0  0  0  0  0  0  0
    2.7388   -1.6130    0.2671 H   0  0  0  0  0  0  0  0  0  0  0  0
    2.8599   -0.5245   -1.1026 H   0  0  0  0  0  0  0  0  0  0  0  0
    3.8038   -0.2279    0.3753 H   0  0  0  0  0  0  0  0  0  0  0  0
    4.1686   -2.6159   -1.5830 H   0  0  0  0  0  0  0  0  0  0  0  0
    4.9003   -2.4858    0.0082 H   0  0  0  0  0  0  0  0  0  0  0  0
    6.6880   -1.4181   -0.6668 H   0  0  0  0  0  0  0  0  0  0  0  0
    5.7303   -0.1226   -1.2993 H   0  0  0  0  0  0  0  0  0  0  0  0
    4.2232    0.3242   -3.4916 H   0  0  0  0  0  0  0  0  0  0  0  0
    4.2516   -1.3909   -3.8667 H   0  0  0  0  0  0  0  0  0  0  0  0
    4.7004    0.8719   -5.8881 H   0  0  0  0  0  0  0  0  0  0  0  0
    3.2428   -0.0909   -5.6680 H   0  0  0  0  0  0  0  0  0  0  0  0
    5.9387   -1.1587   -6.6487 H   0  0  0  0  0  0  0  0  0  0  0  0
    4.4612   -0.9364   -7.5888 H   0  0  0  0  0  0  0  0  0  0  0  0
    4.5150   -2.1707   -6.3218 H   0  0  0  0  0  0  0  0  0  0  0  0
    7.0005    1.2701   -2.8298 H   0  0  0  0  0  0  0  0  0  0  0  0
    7.4370    0.9944   -5.8609 H   0  0  0  0  0  0  0  0  0  0  0  0
   10.5236    1.4816   -6.3686 H   0  0  0  0  0  0  0  0  0  0  0  0
   10.5872   -0.6880   -6.5912 H   0  0  0  0  0  0  0  0  0  0  0  0
   12.1187   -1.8610   -5.6709 H   0  0  0  0  0  0  0  0  0  0  0  0
   11.9254   -2.7624   -4.2254 H   0  0  0  0  0  0  0  0  0  0  0  0
   13.6539   -1.2565   -3.8313 H   0  0  0  0  0  0  0  0  0  0  0  0
   12.9916    0.0160   -4.7781 H   0  0  0  0  0  0  0  0  0  0  0  0
   13.0723    0.9372   -2.7403 H   0  0  0  0  0  0  0  0  0  0  0  0
   12.8449   -0.5594   -1.9078 H   0  0  0  0  0  0  0  0  0  0  0  0
   11.2903    1.3046   -1.4643 H   0  0  0  0  0  0  0  0  0  0  0  0
   10.6801   -0.3100   -1.5780 H   0  0  0  0  0  0  0  0  0  0  0  0
    9.3240    1.7045   -2.3198 H   0  0  0  0  0  0  0  0  0  0  0  0
    9.1806    0.2269   -3.0452 H   0  0  0  0  0  0  0  0  0  0  0  0
   10.0424   -2.5652   -2.9667 H   0  0  0  0  0  0  0  0  0  0  0  0
    8.1805   -2.5191   -1.9870 H   0  0  0  0  0  0  0  0  0  0  0  0
  1  2  1  0  0  0  0
  1 24  1  0  0  0  0
  1 25  1  0  0  0  0
  1 26  1  0  0  0  0
  2  3  1  0  0  0  0
  2 27  1  0  0  0  0
  2 28  1  0  0  0  0
  3  4  1  0  0  0  0
  3 29  1  0  0  0  0
  3 30  1  0  0  0  0
  4  5  2  0  0  0  0
  4 23  1  0  0  0  0
  5  6  1  0  0  0  0
  5  9  1  0  0  0  0
  6  7  1  0  0  0  0
  6 31  1  0  0  0  0
  6 32  1  0  0  0  0
  7  8  1  0  0  0  0
  7 33  1  0  0  0  0
  7 34  1  0  0  0  0
  8 35  1  0  0  0  0
  8 36  1  0  0  0  0
  8 37  1  0  0  0  0
  9 10  2  0  0  0  0
  9 38  1  0  0  0  0
 10 11  1  0  0  0  0
 10 39  1  0  0  0  0
 11 12  2  0  0  0  0
 11 13  1  0  0  0  0
 13 14  2  0  0  0  0
 13 21  1  0  0  0  0
 14 15  1  0  0  0  0
 14 40  1  0  0  0  0
 15 16  2  0  0  0  0
 15 41  1  0  0  0  0
 16 17  1  0  0  0  0
 16 22  1  0  0  0  0
 17 18  1  0  0  0  0
 17 42  1  0  0  0  0
 17 43  1  0  0  0  0
 18 19  1  0  0  0  0
 18 44  1  0  0  0  0
 18 45  1  0  0  0  0
 19 20  1  0  0  0  0
 19 46  1  0  0  0  0
 19 47  1  0  0  0  0
 20 21  1  0  0  0  0
 20 48  1  0  0  0  0
 20 49  1  0  0  0  0
 21 50  1  0  0  0  0
 21 51  1  0  0  0  0
 22 23  2  0  0  0  0
 22 52  1  0  0  0  0
 23 53  1  0  0  0  0
M  END
$$$$
