
 OpenBabel04232217003D

 87 87  0  0  1  0  0  0  0  0999 V2000
    0.9271   -0.2409   -0.2673 O   0  0  0  0  0  0  0  0  0  0  0  0
    2.3511   -0.1704   -0.2369 C   0  0  3  0  0  0  0  0  0  0  0  0
    3.0025   -1.2421   -1.1081 C   0  0  0  0  0  0  0  0  0  0  0  0
    3.6009   -0.3720   -1.9325 C   0  0  0  0  0  0  0  0  0  0  0  0
    3.0436    0.8396   -1.2097 C   0  0  3  0  0  0  0  0  0  0  0  0
    4.1211    1.7128   -0.5558 C   0  0  0  0  0  0  0  0  0  0  0  0
    3.4622    2.7470    0.1824 O   0  0  0  0  0  0  0  0  0  0  0  0
    4.3430    3.0317    1.2925 O   0  0  0  0  0  0  0  0  0  0  0  0
    3.8525    4.1693    2.0333 O   0  0  0  0  0  0  0  0  0  0  0  0
    4.5987    5.3567    1.6773 O   0  0  0  0  0  0  0  0  0  0  0  0
    4.1255    6.4954    2.4293 O   0  0  0  0  0  0  0  0  0  0  0  0
    4.8599    6.6168    3.6713 O   0  0  0  0  0  0  0  0  0  0  0  0
    4.1405    7.4608    4.5969 O   0  0  0  0  0  0  0  0  0  0  0  0
    4.6278    8.8210    4.5208 O   0  0  0  0  0  0  0  0  0  0  0  0
    4.0989    9.5906    5.6229 O   0  0  0  0  0  0  0  0  0  0  0  0
    5.1680   10.1081    6.4418 O   0  0  0  0  0  0  0  0  0  0  0  0
    5.1394   11.5539    6.4362 O   0  0  0  0  0  0  0  0  0  0  0  0
    6.1376   12.0639    7.3442 O   0  0  0  0  0  0  0  0  0  0  0  0
    5.5192   12.6940    8.4850 O   0  0  0  0  0  0  0  0  0  0  0  0
    5.8925   14.0889    8.5311 O   0  0  0  0  0  0  0  0  0  0  0  0
    5.0039   14.8048    9.4089 O   0  0  0  0  0  0  0  0  0  0  0  0
    5.7420   15.4361   10.4757 O   0  0  0  0  0  0  0  0  0  0  0  0
    5.4164   16.8426   10.5125 O   0  0  0  0  0  0  0  0  0  0  0  0
    6.4246   17.5725   11.2367 O   0  0  0  0  0  0  0  0  0  0  0  0
    5.9618   17.8550   12.5758 O   0  0  0  0  0  0  0  0  0  0  0  0
    6.7974   18.8635   13.1769 O   0  0  0  0  0  0  0  0  0  0  0  0
    6.2683   20.1812   12.9098 O   0  0  0  0  0  0  0  0  0  0  0  0
    6.9689   21.1565   13.7079 O   0  0  0  0  0  0  0  0  0  0  0  0
    6.4338   21.1790   15.0516 O   0  0  0  0  0  0  0  0  0  0  0  0
    7.1400   22.1548   15.8443 O   0  0  0  0  0  0  0  0  0  0  0  0
    6.6997   23.4876   15.4926 O   0  0  0  0  0  0  0  0  0  0  0  0
    7.4576   24.4692   16.2280 O   0  0  0  0  0  0  0  0  0  0  0  0
    6.9411   24.5787   17.5744 O   0  0  0  0  0  0  0  0  0  0  0  0
    7.7335   25.5106   18.3379 O   0  0  0  0  0  0  0  0  0  0  0  0
    7.2337   26.8532   18.1449 O   0  0  0  0  0  0  0  0  0  0  0  0
    8.0412   27.7961   18.8792 O   0  0  0  0  0  0  0  0  0  0  0  0
    7.4551   28.0432   20.1771 O   0  0  0  0  0  0  0  0  0  0  0  0
    8.2557   28.9921   20.9117 O   0  0  0  0  0  0  0  0  0  0  0  0
    7.7294   30.3266   20.7354 O   0  0  0  0  0  0  0  0  0  0  0  0
    8.5291   31.2763   21.4691 O   0  0  0  0  0  0  0  0  0  0  0  0
    7.9547   31.5019   22.7757 O   0  0  0  0  0  0  0  0  0  0  0  0
    8.7617   32.4383   23.5162 O   0  0  0  0  0  0  0  0  0  0  0  0
    8.2471   33.7771   23.3449 O   0  0  0  0  0  0  0  0  0  0  0  0
    9.0582   34.7142   24.0776 O   0  0  0  0  0  0  0  0  0  0  0  0
    8.5035   34.9226   25.3946 O   0  0  0  0  0  0  0  0  0  0  0  0
    9.3132   35.8626   26.1244 O   0  0  0  0  0  0  0  0  0  0  0  0
    8.8464   37.2073   25.8799 O   0  0  0  0  0  0  0  0  0  0  0  0
    9.6566   38.1479   26.6087 O   0  0  0  0  0  0  0  0  0  0  0  0
    9.1359   38.3032   27.9458 O   0  0  0  0  0  0  0  0  0  0  0  0
    9.9309   39.2510   28.6808 O   0  0  0  0  0  0  0  0  0  0  0  0
    9.3244   40.5526   28.5873 O   0  0  0  0  0  0  0  0  0  0  0  0
   10.1086   41.5289   29.2927 O   0  0  0  0  0  0  0  0  0  0  0  0
    9.3419   42.0190   30.4037 O   0  0  0  0  0  0  0  0  0  0  0  0
   10.1721   42.7374   31.3237 O   0  0  0  0  0  0  0  0  0  0  0  0
    9.6902   44.0889   31.4225 O   0  0  0  0  0  0  0  0  0  0  0  0
   10.7617   44.9645   31.7796 O   0  0  0  0  0  0  0  0  0  0  0  0
   10.6011   45.4043   33.1402 O   0  0  0  0  0  0  0  0  0  0  0  0
   11.4917   46.5055   33.3729 O   0  0  0  0  0  0  0  0  0  0  0  0
   10.7634   47.6587   33.8226 O   0  0  0  0  0  0  0  0  0  0  0  0
   11.0999   47.9157   35.2011 O   0  0  0  0  0  0  0  0  0  0  0  0
   10.2057   48.8992   35.7465 O   0  0  0  0  0  0  0  0  0  0  0  0
   10.8174   50.2073   35.7170 O   0  0  0  0  0  0  0  0  0  0  0  0
   10.7838   50.7835   37.0412 O   0  0  0  0  0  0  0  0  0  0  0  0
   12.0175   51.4746   37.3261 O   0  0  0  0  0  0  0  0  0  0  0  0
   11.7478   52.8462   37.7023 O   0  0  0  0  0  0  0  0  0  0  0  0
   12.1419   53.0701   39.0788 O   0  0  0  0  0  0  0  0  0  0  0  0
   11.4141   54.1879   39.6410 O   0  0  0  0  0  0  0  0  0  0  0  0
   12.1926   55.4059   39.5218 O   0  0  0  0  0  0  0  0  0  0  0  0
   11.6740   56.4286   40.4080 O   0  0  0  0  0  0  0  0  0  0  0  0
   12.4849   56.5281   41.6057 O   0  0  0  0  0  0  0  0  0  0  0  0
   12.0352   57.6323   42.4340 O   0  0  0  0  0  0  0  0  0  0  0  0
   12.8866   58.7915   42.2441 O   0  0  0  0  0  0  0  0  0  0  0  0
   12.3829   59.9274   42.9949 O   0  0  0  0  0  0  0  0  0  0  0  0
   13.2066   60.1696   44.1657 O   0  0  0  0  0  0  0  0  0  0  0  0
   12.5746   61.1347   45.0451 O   0  0  0  0  0  0  0  0  0  0  0  0
   13.2084   62.4354   44.9222 O   0  0  0  0  0  0  0  0  0  0  0  0
   12.7059   63.3349   45.9447 O   0  0  0  0  0  0  0  0  0  0  0  0
   13.7941   63.9515   46.6794 O   0  0  0  0  0  0  0  0  0  0  0  0
   14.3441   63.0336   47.6572 O   0  0  0  0  0  0  0  0  0  0  0  0
    0.7255   -1.0753    0.1600 H   0  0  0  0  0  0  0  0  0  0  0  0
    2.7257   -0.1257    0.7678 H   0  0  0  0  0  0  0  0  0  0  0  0
    2.9706   -2.3255   -1.0529 H   0  0  0  0  0  0  0  0  0  0  0  0
    4.2344   -0.4806   -2.8160 H   0  0  0  0  0  0  0  0  0  0  0  0
    2.3323    1.4517   -1.7935 H   0  0  0  0  0  0  0  0  0  0  0  0
    4.7454    2.1748   -1.3110 H   0  0  0  0  0  0  0  0  0  0  0  0
    4.7546    1.1098    0.1037 H   0  0  0  0  0  0  0  0  0  0  0  0
   15.2396   63.4125   47.6484 H   0  0  0  0  0  0  0  0  0  0  0  0
  1  2  1  0  0  0  0
  1 80  1  0  0  0  0
  2  3  1  0  0  0  0
  2  5  1  0  0  0  0
  2 81  1  0  0  0  0
  3  4  2  0  0  0  0
  3 82  1  0  0  0  0
  4  5  1  0  0  0  0
  4 83  1  0  0  0  0
  5  6  1  0  0  0  0
  5 84  1  0  0  0  0
  6  7  1  0  0  0  0
  6 85  1  0  0  0  0
  6 86  1  0  0  0  0
  7  8  1  0  0  0  0
  8  9  1  0  0  0  0
  9 10  1  0  0  0  0
 10 11  1  0  0  0  0
 11 12  1  0  0  0  0
 12 13  1  0  0  0  0
 13 14  1  0  0  0  0
 14 15  1  0  0  0  0
 15 16  1  0  0  0  0
 16 17  1  0  0  0  0
 17 18  1  0  0  0  0
 18 19  1  0  0  0  0
 19 20  1  0  0  0  0
 20 21  1  0  0  0  0
 21 22  1  0  0  0  0
 22 23  1  0  0  0  0
 23 24  1  0  0  0  0
 24 25  1  0  0  0  0
 25 26  1  0  0  0  0
 26 27  1  0  0  0  0
 27 28  1  0  0  0  0
 28 29  1  0  0  0  0
 29 30  1  0  0  0  0
 30 31  1  0  0  0  0
 31 32  1  0  0  0  0
 32 33  1  0  0  0  0
 33 34  1  0  0  0  0
 34 35  1  0  0  0  0
 35 36  1  0  0  0  0
 36 37  1  0  0  0  0
 37 38  1  0  0  0  0
 38 39  1  0  0  0  0
 39 40  1  0  0  0  0
 40 41  1  0  0  0  0
 41 42  1  0  0  0  0
 42 43  1  0  0  0  0
 43 44  1  0  0  0  0
 44 45  1  0  0  0  0
 45 46  1  0  0  0  0
 46 47  1  0  0  0  0
 47 48  1  0  0  0  0
 48 49  1  0  0  0  0
 49 50  1  0  0  0  0
 50 51  1  0  0  0  0
 51 52  1  0  0  0  0
 52 53  1  0  0  0  0
 53 54  1  0  0  0  0
 54 55  1  0  0  0  0
 55 56  1  0  0  0  0
 56 57  1  0  0  0  0
 57 58  1  0  0  0  0
 58 59  1  0  0  0  0
 59 60  1  0  0  0  0
 60 61  1  0  0  0  0
 61 62  1  0  0  0  0
 62 63  1  0  0  0  0
 63 64  1  0  0  0  0
 64 65  1  0  0  0  0
 65 66  1  0  0  0  0
 66 67  1  0  0  0  0
 67 68  1  0  0  0  0
 68 69  1  0  0  0  0
 69 70  1  0  0  0  0
 70 71  1  0  0  0  0
 71 72  1  0  0  0  0
 72 73  1  0  0  0  0
 73 74  1  0  0  0  0
 74 75  1  0  0  0  0
 75 76  1  0  0  0  0
 76 77  1  0  0  0  0
 77 78  1  0  0  0  0
 78 79  1  0  0  0  0
 79 87  1  0  0  0  0
M  END
$$$$
