
 OpenBabel04232217003D

237236  0  0  1  0  0  0  0  0999 V2000
    2.8630   -0.0673    1.5692 O   0  0  0  0  0  0  0  0  0  0  0  0
    2.3999   -0.0401    0.2218 C   0  0  3  0  0  0  0  0  0  0  0  0
    0.8818   -0.0934    0.2260 C   0  0  0  0  0  0  0  0  0  0  0  0
    2.9065    1.2347   -0.4489 C   0  0  0  0  0  0  0  0  0  0  0  0
    4.4311    1.2674   -0.4695 C   0  0  0  0  0  0  0  0  0  0  0  0
    4.9419    2.5427   -1.1228 C   0  0  0  0  0  0  0  0  0  0  0  0
    6.4616    2.5456   -1.1206 C   0  0  0  0  0  0  0  0  0  0  0  0
    6.9833    3.8129   -1.7720 C   0  0  0  0  0  0  0  0  0  0  0  0
    8.5012    3.8120   -1.7724 C   0  0  0  0  0  0  0  0  0  0  0  0
    9.0135    5.0819   -2.4254 C   0  0  0  0  0  0  0  0  0  0  0  0
   10.5300    5.0860   -2.4292 C   0  0  0  0  0  0  0  0  0  0  0  0
   11.0392    6.3552   -3.0853 C   0  0  0  0  0  0  0  0  0  0  0  0
   12.5558    6.3580   -3.0913 C   0  0  0  0  0  0  0  0  0  0  0  0
   13.0656    7.6274   -3.7461 C   0  0  0  0  0  0  0  0  0  0  0  0
   14.5822    7.6291   -3.7537 C   0  0  0  0  0  0  0  0  0  0  0  0
   15.0924    8.8984   -4.4082 C   0  0  0  0  0  0  0  0  0  0  0  0
   16.6085    8.9018   -4.4151 C   0  0  0  0  0  0  0  0  0  0  0  0
   17.1181   10.1728   -5.0674 C   0  0  0  0  0  0  0  0  0  0  0  0
   18.6347   10.1752   -5.0710 C   0  0  0  0  0  0  0  0  0  0  0  0
   19.1452   11.4463   -5.7216 C   0  0  0  0  0  0  0  0  0  0  0  0
   20.6619   11.4483   -5.7267 C   0  0  0  0  0  0  0  0  0  0  0  0
   21.1721   12.7189   -6.3793 C   0  0  0  0  0  0  0  0  0  0  0  0
   22.6889   12.7212   -6.3831 C   0  0  0  0  0  0  0  0  0  0  0  0
   23.1986   13.9922   -7.0339 C   0  0  0  0  0  0  0  0  0  0  0  0
   24.7162   13.9963   -7.0386 C   0  0  0  0  0  0  0  0  0  0  0  0
   25.2248   15.2675   -7.6902 C   0  0  0  0  0  0  0  0  0  0  0  0
   26.7413   15.2708   -7.6947 C   0  0  0  0  0  0  0  0  0  0  0  0
   27.2510   16.5420   -8.3465 C   0  0  0  0  0  0  0  0  0  0  0  0
   28.7678   16.5451   -8.3505 C   0  0  0  0  0  0  0  0  0  0  0  0
   29.2784   17.8166   -9.0007 C   0  0  0  0  0  0  0  0  0  0  0  0
   30.7955   17.8203   -9.0048 C   0  0  0  0  0  0  0  0  0  0  0  0
   31.3087   19.0922   -9.6534 C   0  0  0  0  0  0  0  0  0  0  0  0
   32.8220   19.0951   -9.6578 C   0  0  0  0  0  0  0  0  0  0  0  0
   33.3312   20.3667  -10.3062 C   0  0  0  0  0  0  0  0  0  0  0  0
   34.8482   20.3708  -10.3105 C   0  0  0  0  0  0  0  0  0  0  0  0
   35.3581   21.6433  -10.9596 C   0  0  0  0  0  0  0  0  0  0  0  0
   36.8749   21.6478  -10.9618 C   0  0  0  0  0  0  0  0  0  0  0  0
   37.3848   22.9211  -11.6093 C   0  0  0  0  0  0  0  0  0  0  0  0
   38.9011   22.9258  -11.6100 C   0  0  0  0  0  0  0  0  0  0  0  0
   39.4118   24.1998  -12.2557 C   0  0  0  0  0  0  0  0  0  0  0  0
   40.9283   24.2046  -12.2574 C   0  0  0  0  0  0  0  0  0  0  0  0
   41.4384   25.4775  -12.9043 C   0  0  0  0  0  0  0  0  0  0  0  0
   42.9548   25.4819  -12.9066 C   0  0  0  0  0  0  0  0  0  0  0  0
   43.4650   26.7551  -13.5541 C   0  0  0  0  0  0  0  0  0  0  0  0
   44.9816   26.7594  -13.5562 C   0  0  0  0  0  0  0  0  0  0  0  0
   45.4916   28.0327  -14.2033 C   0  0  0  0  0  0  0  0  0  0  0  0
   47.0082   28.0368  -14.2056 C   0  0  0  0  0  0  0  0  0  0  0  0
   47.5183   29.3108  -14.8513 C   0  0  0  0  0  0  0  0  0  0  0  0
   49.0349   29.3142  -14.8549 C   0  0  0  0  0  0  0  0  0  0  0  0
   49.5449   30.5891  -15.4988 C   0  0  0  0  0  0  0  0  0  0  0  0
   51.0616   30.5935  -15.5010 C   0  0  0  0  0  0  0  0  0  0  0  0
   51.5712   31.8684  -16.1448 C   0  0  0  0  0  0  0  0  0  0  0  0
   53.0878   31.8722  -16.1487 C   0  0  0  0  0  0  0  0  0  0  0  0
   53.5977   33.1463  -16.7940 C   0  0  0  0  0  0  0  0  0  0  0  0
   55.1143   33.1504  -16.7960 C   0  0  0  0  0  0  0  0  0  0  0  0
   55.6245   34.4252  -17.4398 C   0  0  0  0  0  0  0  0  0  0  0  0
   57.1412   34.4294  -17.4419 C   0  0  0  0  0  0  0  0  0  0  0  0
   57.6512   35.7036  -18.0873 C   0  0  0  0  0  0  0  0  0  0  0  0
   59.1679   35.7079  -18.0894 C   0  0  0  0  0  0  0  0  0  0  0  0
   59.6780   36.9821  -18.7349 C   0  0  0  0  0  0  0  0  0  0  0  0
   61.1947   36.9862  -18.7373 C   0  0  0  0  0  0  0  0  0  0  0  0
   61.7048   38.2605  -19.3825 C   0  0  0  0  0  0  0  0  0  0  0  0
   63.2215   38.2650  -19.3845 C   0  0  0  0  0  0  0  0  0  0  0  0
   63.7314   39.5390  -20.0303 C   0  0  0  0  0  0  0  0  0  0  0  0
   65.2481   39.5432  -20.0325 C   0  0  0  0  0  0  0  0  0  0  0  0
   65.7582   40.8172  -20.6782 C   0  0  0  0  0  0  0  0  0  0  0  0
   67.2749   40.8215  -20.6804 C   0  0  0  0  0  0  0  0  0  0  0  0
   67.7852   42.0948  -21.3277 C   0  0  0  0  0  0  0  0  0  0  0  0
   69.3020   42.0992  -21.3299 C   0  0  0  0  0  0  0  0  0  0  0  0
   69.8126   43.3726  -21.9773 C   0  0  0  0  0  0  0  0  0  0  0  0
   71.3298   43.3775  -21.9797 C   0  0  0  0  0  0  0  0  0  0  0  0
   71.8411   44.6511  -22.6274 C   0  0  0  0  0  0  0  0  0  0  0  0
   73.3591   44.6573  -22.6306 C   0  0  0  0  0  0  0  0  0  0  0  0
   73.8718   45.9308  -23.2802 C   0  0  0  0  0  0  0  0  0  0  0  0
   75.3911   45.9397  -23.2846 C   0  0  0  0  0  0  0  0  0  0  0  0
   75.9081   47.2139  -23.9347 C   0  0  0  0  0  0  0  0  0  0  0  0
   77.4300   47.2247  -23.9380 C   0  0  0  0  0  0  0  0  0  0  0  0
   77.9597   48.4978  -24.5853 C   0  0  0  0  0  0  0  0  0  0  0  0
   79.4769   48.5066  -24.5875 C   0  0  0  0  0  0  0  0  0  0  0  0
    2.5747   -0.9080    1.9617 H   0  0  0  0  0  0  0  0  0  0  0  0
    2.8041   -0.9177   -0.2959 H   0  0  0  0  0  0  0  0  0  0  0  0
    0.4644    0.7648    0.7638 H   0  0  0  0  0  0  0  0  0  0  0  0
    0.5347   -0.9919    0.7464 H   0  0  0  0  0  0  0  0  0  0  0  0
    0.4817   -0.1003   -0.7920 H   0  0  0  0  0  0  0  0  0  0  0  0
    2.5429    2.1145    0.0976 H   0  0  0  0  0  0  0  0  0  0  0  0
    2.5222    1.3004   -1.4743 H   0  0  0  0  0  0  0  0  0  0  0  0
    4.8125    0.3967   -1.0169 H   0  0  0  0  0  0  0  0  0  0  0  0
    4.8265    1.2059    0.5514 H   0  0  0  0  0  0  0  0  0  0  0  0
    4.5661    3.4194   -0.5808 H   0  0  0  0  0  0  0  0  0  0  0  0
    4.5699    2.6114   -2.1520 H   0  0  0  0  0  0  0  0  0  0  0  0
    6.8384    1.6681   -1.6605 H   0  0  0  0  0  0  0  0  0  0  0  0
    6.8352    2.4764   -0.0915 H   0  0  0  0  0  0  0  0  0  0  0  0
    6.6123    4.6914   -1.2305 H   0  0  0  0  0  0  0  0  0  0  0  0
    6.6113    3.8841   -2.8015 H   0  0  0  0  0  0  0  0  0  0  0  0
    8.8767    2.9349   -2.3139 H   0  0  0  0  0  0  0  0  0  0  0  0
    8.8770    3.7432   -0.7438 H   0  0  0  0  0  0  0  0  0  0  0  0
    8.6390    5.9587   -1.8829 H   0  0  0  0  0  0  0  0  0  0  0  0
    8.6371    5.1517   -3.4538 H   0  0  0  0  0  0  0  0  0  0  0  0
   10.9053    4.2088   -2.9705 H   0  0  0  0  0  0  0  0  0  0  0  0
   10.9070    5.0193   -1.4012 H   0  0  0  0  0  0  0  0  0  0  0  0
   10.6654    7.2327   -2.5433 H   0  0  0  0  0  0  0  0  0  0  0  0
   10.6610    6.4231   -4.1128 H   0  0  0  0  0  0  0  0  0  0  0  0
   12.9291    5.4809   -3.6343 H   0  0  0  0  0  0  0  0  0  0  0  0
   12.9340    6.2890   -2.0639 H   0  0  0  0  0  0  0  0  0  0  0  0
   12.6930    8.5043   -3.2022 H   0  0  0  0  0  0  0  0  0  0  0  0
   12.6861    7.6971   -4.7730 H   0  0  0  0  0  0  0  0  0  0  0  0
   14.9546    6.7522   -4.2973 H   0  0  0  0  0  0  0  0  0  0  0  0
   14.9613    7.5594   -2.7265 H   0  0  0  0  0  0  0  0  0  0  0  0
   14.7190    9.7754   -3.8648 H   0  0  0  0  0  0  0  0  0  0  0  0
   14.7133    8.9679   -5.4356 H   0  0  0  0  0  0  0  0  0  0  0  0
   16.9830    8.0254   -4.9586 H   0  0  0  0  0  0  0  0  0  0  0  0
   16.9870    8.8320   -3.3876 H   0  0  0  0  0  0  0  0  0  0  0  0
   16.7442   11.0483   -4.5225 H   0  0  0  0  0  0  0  0  0  0  0  0
   16.7409   10.2459   -6.0952 H   0  0  0  0  0  0  0  0  0  0  0  0
   19.0093    9.2995   -5.6152 H   0  0  0  0  0  0  0  0  0  0  0  0
   19.0112   10.1040   -4.0431 H   0  0  0  0  0  0  0  0  0  0  0  0
   18.7718   12.3217   -5.1760 H   0  0  0  0  0  0  0  0  0  0  0  0
   18.7674   11.5183   -6.7489 H   0  0  0  0  0  0  0  0  0  0  0  0
   21.0353   10.5721   -6.2711 H   0  0  0  0  0  0  0  0  0  0  0  0
   21.0395   11.3774   -4.6993 H   0  0  0  0  0  0  0  0  0  0  0  0
   20.7973   13.5949   -5.8356 H   0  0  0  0  0  0  0  0  0  0  0  0
   20.7947   12.7889   -7.4070 H   0  0  0  0  0  0  0  0  0  0  0  0
   23.0627   11.8460   -6.9280 H   0  0  0  0  0  0  0  0  0  0  0  0
   23.0654   12.6503   -5.3556 H   0  0  0  0  0  0  0  0  0  0  0  0
   22.8252   14.8673   -6.4892 H   0  0  0  0  0  0  0  0  0  0  0  0
   22.8217   14.0647   -8.0611 H   0  0  0  0  0  0  0  0  0  0  0  0
   25.0898   13.1201   -7.5837 H   0  0  0  0  0  0  0  0  0  0  0  0
   25.0935   13.9251   -6.0116 H   0  0  0  0  0  0  0  0  0  0  0  0
   24.8503   16.1434   -7.1446 H   0  0  0  0  0  0  0  0  0  0  0  0
   24.8471   15.3390   -8.7175 H   0  0  0  0  0  0  0  0  0  0  0  0
   27.1157   14.3950   -8.2392 H   0  0  0  0  0  0  0  0  0  0  0  0
   27.1188   15.1995   -6.6673 H   0  0  0  0  0  0  0  0  0  0  0  0
   26.8771   17.4174   -7.8012 H   0  0  0  0  0  0  0  0  0  0  0  0
   26.8737   16.6135   -9.3739 H   0  0  0  0  0  0  0  0  0  0  0  0
   29.1426   15.6696   -8.8950 H   0  0  0  0  0  0  0  0  0  0  0  0
   29.1448   16.4737   -7.3226 H   0  0  0  0  0  0  0  0  0  0  0  0
   28.9034   18.6917   -8.4560 H   0  0  0  0  0  0  0  0  0  0  0  0
   28.9015   17.8894  -10.0289 H   0  0  0  0  0  0  0  0  0  0  0  0
   31.1697   16.9451   -9.5503 H   0  0  0  0  0  0  0  0  0  0  0  0
   31.1719   17.7470   -7.9773 H   0  0  0  0  0  0  0  0  0  0  0  0
   30.9289   19.9692   -9.1078 H   0  0  0  0  0  0  0  0  0  0  0  0
   30.9282   19.1648  -10.6800 H   0  0  0  0  0  0  0  0  0  0  0  0
   33.1961   18.2203  -10.2031 H   0  0  0  0  0  0  0  0  0  0  0  0
   33.1979   19.0216   -8.6313 H   0  0  0  0  0  0  0  0  0  0  0  0
   32.9567   21.2420   -9.7613 H   0  0  0  0  0  0  0  0  0  0  0  0
   32.9550   20.4395  -11.3342 H   0  0  0  0  0  0  0  0  0  0  0  0
   35.2232   19.4962  -10.8564 H   0  0  0  0  0  0  0  0  0  0  0  0
   35.2249   20.2981   -9.2829 H   0  0  0  0  0  0  0  0  0  0  0  0
   34.9823   22.5179  -10.4143 H   0  0  0  0  0  0  0  0  0  0  0  0
   34.9823   21.7156  -11.9876 H   0  0  0  0  0  0  0  0  0  0  0  0
   37.2506   20.7738  -11.5080 H   0  0  0  0  0  0  0  0  0  0  0  0
   37.2505   21.5742   -9.9337 H   0  0  0  0  0  0  0  0  0  0  0  0
   37.0081   23.7949  -11.0633 H   0  0  0  0  0  0  0  0  0  0  0  0
   37.0098   22.9940  -12.6373 H   0  0  0  0  0  0  0  0  0  0  0  0
   39.2777   22.0524  -12.1567 H   0  0  0  0  0  0  0  0  0  0  0  0
   39.2759   22.8511  -10.5817 H   0  0  0  0  0  0  0  0  0  0  0  0
   39.0356   25.0733  -11.7084 H   0  0  0  0  0  0  0  0  0  0  0  0
   39.0360   24.2746  -13.2837 H   0  0  0  0  0  0  0  0  0  0  0  0
   41.3043   23.3302  -12.8037 H   0  0  0  0  0  0  0  0  0  0  0  0
   41.3041   24.1306  -11.2291 H   0  0  0  0  0  0  0  0  0  0  0  0
   41.0625   26.3516  -12.3580 H   0  0  0  0  0  0  0  0  0  0  0  0
   41.0624   25.5514  -13.9326 H   0  0  0  0  0  0  0  0  0  0  0  0
   43.3308   24.6079  -13.4527 H   0  0  0  0  0  0  0  0  0  0  0  0
   43.3308   25.4086  -11.8786 H   0  0  0  0  0  0  0  0  0  0  0  0
   43.0891   27.6290  -13.0080 H   0  0  0  0  0  0  0  0  0  0  0  0
   43.0892   26.8284  -14.5822 H   0  0  0  0  0  0  0  0  0  0  0  0
   45.3575   25.8855  -14.1024 H   0  0  0  0  0  0  0  0  0  0  0  0
   45.3573   26.6858  -12.5281 H   0  0  0  0  0  0  0  0  0  0  0  0
   45.1158   28.9065  -13.6569 H   0  0  0  0  0  0  0  0  0  0  0  0
   45.1158   28.1064  -15.2313 H   0  0  0  0  0  0  0  0  0  0  0  0
   47.3839   27.1635  -14.7531 H   0  0  0  0  0  0  0  0  0  0  0  0
   47.3842   27.9619  -13.1778 H   0  0  0  0  0  0  0  0  0  0  0  0
   47.1435   30.1839  -14.3029 H   0  0  0  0  0  0  0  0  0  0  0  0
   47.1415   29.3866  -15.8787 H   0  0  0  0  0  0  0  0  0  0  0  0
   49.4097   28.4417  -15.4043 H   0  0  0  0  0  0  0  0  0  0  0  0
   49.4117   29.2372  -13.8276 H   0  0  0  0  0  0  0  0  0  0  0  0
   49.1692   31.4615  -14.9501 H   0  0  0  0  0  0  0  0  0  0  0  0
   49.1691   30.6655  -16.5266 H   0  0  0  0  0  0  0  0  0  0  0  0
   51.4374   29.7210  -16.0497 H   0  0  0  0  0  0  0  0  0  0  0  0
   51.4375   30.5170  -14.4731 H   0  0  0  0  0  0  0  0  0  0  0  0
   51.1963   32.7408  -15.5952 H   0  0  0  0  0  0  0  0  0  0  0  0
   51.1942   31.9455  -17.1721 H   0  0  0  0  0  0  0  0  0  0  0  0
   53.4627   30.9992  -16.6972 H   0  0  0  0  0  0  0  0  0  0  0  0
   53.4646   31.7964  -15.1212 H   0  0  0  0  0  0  0  0  0  0  0  0
   53.2218   34.0194  -16.2463 H   0  0  0  0  0  0  0  0  0  0  0  0
   53.2219   33.2215  -17.8219 H   0  0  0  0  0  0  0  0  0  0  0  0
   55.4900   32.2778  -17.3445 H   0  0  0  0  0  0  0  0  0  0  0  0
   55.4900   33.0741  -15.7682 H   0  0  0  0  0  0  0  0  0  0  0  0
   55.2488   35.2978  -16.8913 H   0  0  0  0  0  0  0  0  0  0  0  0
   55.2487   34.5015  -18.4677 H   0  0  0  0  0  0  0  0  0  0  0  0
   57.5169   33.5564  -17.9896 H   0  0  0  0  0  0  0  0  0  0  0  0
   57.5169   34.3542  -16.4141 H   0  0  0  0  0  0  0  0  0  0  0  0
   57.2754   36.5768  -17.5397 H   0  0  0  0  0  0  0  0  0  0  0  0
   57.2755   35.7788  -19.1152 H   0  0  0  0  0  0  0  0  0  0  0  0
   59.5437   34.8348  -18.6371 H   0  0  0  0  0  0  0  0  0  0  0  0
   59.5437   35.6328  -17.0616 H   0  0  0  0  0  0  0  0  0  0  0  0
   59.3024   37.8552  -18.1872 H   0  0  0  0  0  0  0  0  0  0  0  0
   59.3021   37.0572  -19.7627 H   0  0  0  0  0  0  0  0  0  0  0  0
   61.5703   36.1131  -19.2851 H   0  0  0  0  0  0  0  0  0  0  0  0
   61.5706   36.9109  -17.7095 H   0  0  0  0  0  0  0  0  0  0  0  0
   61.3289   39.1335  -18.8349 H   0  0  0  0  0  0  0  0  0  0  0  0
   61.3292   38.3356  -20.4105 H   0  0  0  0  0  0  0  0  0  0  0  0
   63.5975   37.3918  -19.9318 H   0  0  0  0  0  0  0  0  0  0  0  0
   63.5972   38.1903  -18.3566 H   0  0  0  0  0  0  0  0  0  0  0  0
   63.3557   40.4123  -19.4830 H   0  0  0  0  0  0  0  0  0  0  0  0
   63.3556   39.6138  -21.0582 H   0  0  0  0  0  0  0  0  0  0  0  0
   65.6237   38.6700  -20.5800 H   0  0  0  0  0  0  0  0  0  0  0  0
   65.6239   39.4682  -19.0046 H   0  0  0  0  0  0  0  0  0  0  0  0
   65.3825   41.6905  -20.1308 H   0  0  0  0  0  0  0  0  0  0  0  0
   65.3824   40.8920  -21.7061 H   0  0  0  0  0  0  0  0  0  0  0  0
   67.6507   39.9476  -21.2267 H   0  0  0  0  0  0  0  0  0  0  0  0
   67.6506   40.7478  -19.6523 H   0  0  0  0  0  0  0  0  0  0  0  0
   67.4092   42.9686  -20.7813 H   0  0  0  0  0  0  0  0  0  0  0  0
   67.4093   42.1683  -22.3556 H   0  0  0  0  0  0  0  0  0  0  0  0
   69.6776   41.2252  -21.8762 H   0  0  0  0  0  0  0  0  0  0  0  0
   69.6776   42.0255  -20.3019 H   0  0  0  0  0  0  0  0  0  0  0  0
   69.4365   44.2464  -21.4309 H   0  0  0  0  0  0  0  0  0  0  0  0
   69.4365   43.4460  -23.0052 H   0  0  0  0  0  0  0  0  0  0  0  0
   71.7051   42.5033  -22.5258 H   0  0  0  0  0  0  0  0  0  0  0  0
   71.7052   43.3037  -20.9516 H   0  0  0  0  0  0  0  0  0  0  0  0
   71.4645   45.5246  -22.0809 H   0  0  0  0  0  0  0  0  0  0  0  0
   71.4644   44.7241  -23.6551 H   0  0  0  0  0  0  0  0  0  0  0  0
   73.7341   43.7821  -23.1753 H   0  0  0  0  0  0  0  0  0  0  0  0
   73.7340   44.5845  -21.6022 H   0  0  0  0  0  0  0  0  0  0  0  0
   73.4942   46.8043  -22.7346 H   0  0  0  0  0  0  0  0  0  0  0  0
   73.4943   46.0018  -24.3077 H   0  0  0  0  0  0  0  0  0  0  0  0
   75.7654   45.0637  -23.8288 H   0  0  0  0  0  0  0  0  0  0  0  0
   75.7652   45.8661  -22.2560 H   0  0  0  0  0  0  0  0  0  0  0  0
   75.5291   48.0872  -23.3897 H   0  0  0  0  0  0  0  0  0  0  0  0
   75.5313   47.2840  -24.9624 H   0  0  0  0  0  0  0  0  0  0  0  0
   77.8028   46.3475  -24.4812 H   0  0  0  0  0  0  0  0  0  0  0  0
   77.8006   47.1483  -22.9083 H   0  0  0  0  0  0  0  0  0  0  0  0
   77.5891   49.3745  -24.0415 H   0  0  0  0  0  0  0  0  0  0  0  0
   77.5915   48.5736  -25.6150 H   0  0  0  0  0  0  0  0  0  0  0  0
   79.8671   48.4564  -23.5659 H   0  0  0  0  0  0  0  0  0  0  0  0
   79.8498   49.4229  -25.0532 H   0  0  0  0  0  0  0  0  0  0  0  0
   79.8695   47.6515  -25.1470 H   0  0  0  0  0  0  0  0  0  0  0  0
  1  2  1  0  0  0  0
  1 80  1  0  0  0  0
  2  3  1  0  0  0  0
  2  4  1  0  0  0  0
  2 81  1  0  0  0  0
  3 82  1  0  0  0  0
  3 83  1  0  0  0  0
  3 84  1  0  0  0  0
  4  5  1  0  0  0  0
  4 85  1  0  0  0  0
  4 86  1  0  0  0  0
  5  6  1  0  0  0  0
  5 87  1  0  0  0  0
  5 88  1  0  0  0  0
  6  7  1  0  0  0  0
  6 89  1  0  0  0  0
  6 90  1  0  0  0  0
  7  8  1  0  0  0  0
  7 91  1  0  0  0  0
  7 92  1  0  0  0  0
  8  9  1  0  0  0  0
  8 93  1  0  0  0  0
  8 94  1  0  0  0  0
  9 10  1  0  0  0  0
  9 95  1  0  0  0  0
  9 96  1  0  0  0  0
 10 11  1  0  0  0  0
 10 97  1  0  0  0  0
 10 98  1  0  0  0  0
 11 12  1  0  0  0  0
 11 99  1  0  0  0  0
 11100  1  0  0  0  0
 12 13  1  0  0  0  0
 12101  1  0  0  0  0
 12102  1  0  0  0  0
 13 14  1  0  0  0  0
 13103  1  0  0  0  0
 13104  1  0  0  0  0
 14 15  1  0  0  0  0
 14105  1  0  0  0  0
 14106  1  0  0  0  0
 15 16  1  0  0  0  0
 15107  1  0  0  0  0
 15108  1  0  0  0  0
 16 17  1  0  0  0  0
 16109  1  0  0  0  0
 16110  1  0  0  0  0
 17 18  1  0  0  0  0
 17111  1  0  0  0  0
 17112  1  0  0  0  0
 18 19  1  0  0  0  0
 18113  1  0  0  0  0
 18114  1  0  0  0  0
 19 20  1  0  0  0  0
 19115  1  0  0  0  0
 19116  1  0  0  0  0
 20 21  1  0  0  0  0
 20117  1  0  0  0  0
 20118  1  0  0  0  0
 21 22  1  0  0  0  0
 21119  1  0  0  0  0
 21120  1  0  0  0  0
 22 23  1  0  0  0  0
 22121  1  0  0  0  0
 22122  1  0  0  0  0
 23 24  1  0  0  0  0
 23123  1  0  0  0  0
 23124  1  0  0  0  0
 24 25  1  0  0  0  0
 24125  1  0  0  0  0
 24126  1  0  0  0  0
 25 26  1  0  0  0  0
 25127  1  0  0  0  0
 25128  1  0  0  0  0
 26 27  1  0  0  0  0
 26129  1  0  0  0  0
 26130  1  0  0  0  0
 27 28  1  0  0  0  0
 27131  1  0  0  0  0
 27132  1  0  0  0  0
 28 29  1  0  0  0  0
 28133  1  0  0  0  0
 28134  1  0  0  0  0
 29 30  1  0  0  0  0
 29135  1  0  0  0  0
 29136  1  0  0  0  0
 30 31  1  0  0  0  0
 30137  1  0  0  0  0
 30138  1  0  0  0  0
 31 32  1  0  0  0  0
 31139  1  0  0  0  0
 31140  1  0  0  0  0
 32 33  1  0  0  0  0
 32141  1  0  0  0  0
 32142  1  0  0  0  0
 33 34  1  0  0  0  0
 33143  1  0  0  0  0
 33144  1  0  0  0  0
 34 35  1  0  0  0  0
 34145  1  0  0  0  0
 34146  1  0  0  0  0
 35 36  1  0  0  0  0
 35147  1  0  0  0  0
 35148  1  0  0  0  0
 36 37  1  0  0  0  0
 36149  1  0  0  0  0
 36150  1  0  0  0  0
 37 38  1  0  0  0  0
 37151  1  0  0  0  0
 37152  1  0  0  0  0
 38 39  1  0  0  0  0
 38153  1  0  0  0  0
 38154  1  0  0  0  0
 39 40  1  0  0  0  0
 39155  1  0  0  0  0
 39156  1  0  0  0  0
 40 41  1  0  0  0  0
 40157  1  0  0  0  0
 40158  1  0  0  0  0
 41 42  1  0  0  0  0
 41159  1  0  0  0  0
 41160  1  0  0  0  0
 42 43  1  0  0  0  0
 42161  1  0  0  0  0
 42162  1  0  0  0  0
 43 44  1  0  0  0  0
 43163  1  0  0  0  0
 43164  1  0  0  0  0
 44 45  1  0  0  0  0
 44165  1  0  0  0  0
 44166  1  0  0  0  0
 45 46  1  0  0  0  0
 45167  1  0  0  0  0
 45168  1  0  0  0  0
 46 47  1  0  0  0  0
 46169  1  0  0  0  0
 46170  1  0  0  0  0
 47 48  1  0  0  0  0
 47171  1  0  0  0  0
 47172  1  0  0  0  0
 48 49  1  0  0  0  0
 48173  1  0  0  0  0
 48174  1  0  0  0  0
 49 50  1  0  0  0  0
 49175  1  0  0  0  0
 49176  1  0  0  0  0
 50 51  1  0  0  0  0
 50177  1  0  0  0  0
 50178  1  0  0  0  0
 51 52  1  0  0  0  0
 51179  1  0  0  0  0
 51180  1  0  0  0  0
 52 53  1  0  0  0  0
 52181  1  0  0  0  0
 52182  1  0  0  0  0
 53 54  1  0  0  0  0
 53183  1  0  0  0  0
 53184  1  0  0  0  0
 54 55  1  0  0  0  0
 54185  1  0  0  0  0
 54186  1  0  0  0  0
 55 56  1  0  0  0  0
 55187  1  0  0  0  0
 55188  1  0  0  0  0
 56 57  1  0  0  0  0
 56189  1  0  0  0  0
 56190  1  0  0  0  0
 57 58  1  0  0  0  0
 57191  1  0  0  0  0
 57192  1  0  0  0  0
 58 59  1  0  0  0  0
 58193  1  0  0  0  0
 58194  1  0  0  0  0
 59 60  1  0  0  0  0
 59195  1  0  0  0  0
 59196  1  0  0  0  0
 60 61  1  0  0  0  0
 60197  1  0  0  0  0
 60198  1  0  0  0  0
 61 62  1  0  0  0  0
 61199  1  0  0  0  0
 61200  1  0  0  0  0
 62 63  1  0  0  0  0
 62201  1  0  0  0  0
 62202  1  0  0  0  0
 63 64  1  0  0  0  0
 63203  1  0  0  0  0
 63204  1  0  0  0  0
 64 65  1  0  0  0  0
 64205  1  0  0  0  0
 64206  1  0  0  0  0
 65 66  1  0  0  0  0
 65207  1  0  0  0  0
 65208  1  0  0  0  0
 66 67  1  0  0  0  0
 66209  1  0  0  0  0
 66210  1  0  0  0  0
 67 68  1  0  0  0  0
 67211  1  0  0  0  0
 67212  1  0  0  0  0
 68 69  1  0  0  0  0
 68213  1  0  0  0  0
 68214  1  0  0  0  0
 69 70  1  0  0  0  0
 69215  1  0  0  0  0
 69216  1  0  0  0  0
 70 71  1  0  0  0  0
 70217  1  0  0  0  0
 70218  1  0  0  0  0
 71 72  1  0  0  0  0
 71219  1  0  0  0  0
 71220  1  0  0  0  0
 72 73  1  0  0  0  0
 72221  1  0  0  0  0
 72222  1  0  0  0  0
 73 74  1  0  0  0  0
 73223  1  0  0  0  0
 73224  1  0  0  0  0
 74 75  1  0  0  0  0
 74225  1  0  0  0  0
 74226  1  0  0  0  0
 75 76  1  0  0  0  0
 75227  1  0  0  0  0
 75228  1  0  0  0  0
 76 77  1  0  0  0  0
 76229  1  0  0  0  0
 76230  1  0  0  0  0
 77 78  1  0  0  0  0
 77231  1  0  0  0  0
 77232  1  0  0  0  0
 78 79  1  0  0  0  0
 78233  1  0  0  0  0
 78234  1  0  0  0  0
 79235  1  0  0  0  0
 79236  1  0  0  0  0
 79237  1  0  0  0  0
M  END
$$$$
