
 OpenBabel04232216433D

139139  0  0  0  0  0  0  0  0999 V2000
 -114.5113 -470.6185  126.2311 C   0  0  0  0  0  0  0  0  0  0  0  0
 -113.5411 -472.1201  122.1200 C   0  0  0  0  0  0  0  0  0  0  0  0
 -112.2572 -473.8392  117.6077 C   0  0  0  0  0  0  0  0  0  0  0  0
 -111.1516 -475.1994  113.8690 C   0  0  0  0  0  0  0  0  0  0  0  0
 -109.9611 -476.6608  109.9616 C   0  0  0  0  0  0  0  0  0  0  0  0
 -109.1008 -477.9136  106.5946 C   0  0  0  0  0  0  0  0  0  0  0  0
 -108.0197 -478.4433  103.4802 C   0  0  0  0  0  0  0  0  0  0  0  0
 -108.6624 -478.1838  103.9553 C   0  0  0  0  0  0  0  0  0  0  0  0
 -107.4134 -476.8797  104.8042 C   0  0  0  0  0  0  0  0  0  0  0  0
 -107.4888 -476.3419  106.7380 C   0  0  0  0  0  0  0  0  0  0  0  0
 -108.0918 -475.8497  107.7486 C   0  0  0  0  0  0  0  0  0  0  0  0
 -107.8286 -474.5687  109.2857 C   0  0  0  0  0  0  0  0  0  0  0  0
 -108.5854 -475.5824  109.1639 C   0  0  0  0  0  0  0  0  0  0  0  0
 -108.8236 -475.3811  110.5648 C   0  0  0  0  0  0  0  0  0  0  0  0
 -109.2874 -474.8548  111.5785 C   0  0  0  0  0  0  0  0  0  0  0  0
 -109.5406 -475.0773  113.1619 C   0  0  0  0  0  0  0  0  0  0  0  0
 -109.7369 -474.0159  113.6554 C   0  0  0  0  0  0  0  0  0  0  0  0
 -110.2881 -473.9971  114.9208 C   0  0  0  0  0  0  0  0  0  0  0  0
 -110.4094 -473.3425  116.1508 C   0  0  0  0  0  0  0  0  0  0  0  0
 -110.8630 -473.8292  118.0896 C   0  0  0  0  0  0  0  0  0  0  0  0
 -110.7768 -472.6003  117.8196 C   0  0  0  0  0  0  0  0  0  0  0  0
 -110.9387 -472.4394  119.1401 C   0  0  0  0  0  0  0  0  0  0  0  0
 -111.7677 -472.1201  120.9115 C   0  0  0  0  0  0  0  0  0  0  0  0
 -112.7731 -472.5957  123.1244 C   0  0  0  0  0  0  0  0  0  0  0  0
 -112.0162 -471.0463  122.8371 C   0  0  0  0  0  0  0  0  0  0  0  0
 -112.4485 -470.9727  124.3309 C   0  0  0  0  0  0  0  0  0  0  0  0
 -112.5689 -470.1109  125.1495 C   0  0  0  0  0  0  0  0  0  0  0  0
 -113.3324 -470.2050  126.8443 C   0  0  0  0  0  0  0  0  0  0  0  0
 -113.0415 -469.3735  127.3805 C   0  0  0  0  0  0  0  0  0  0  0  0
 -113.3504 -468.9211  128.6323 C   0  0  0  0  0  0  0  0  0  0  0  0
 -113.6477 -468.5495  129.7756 C   0  0  0  0  0  0  0  0  0  0  0  0
 -114.0316 -468.4222  131.2132 C   0  0  0  0  0  0  0  0  0  0  0  0
 -114.2952 -467.7172  132.1146 C   0  0  0  0  0  0  0  0  0  0  0  0
 -115.0629 -467.9611  133.2160 C   0  0  0  0  0  0  0  0  0  0  0  0
 -114.7733 -467.0453  134.0288 C   0  0  0  0  0  0  0  0  0  0  0  0
 -115.0071 -467.3211  135.0995 C   0  0  0  0  0  0  0  0  0  0  0  0
 -115.1439 -466.1913  136.3127 C   0  0  0  0  0  0  0  0  0  0  0  0
 -115.5681 -466.2027  137.6443 C   0  0  0  0  0  0  0  0  0  0  0  0
 -116.0499 -465.5447  138.8605 C   0  0  0  0  0  0  0  0  0  0  0  0
 -117.4127 -466.6896  140.1931 C   0  0  0  0  0  0  0  0  0  0  0  0
 -116.3355 -464.8987  140.5363 C   0  0  0  0  0  0  0  0  0  0  0  0
 -116.4987 -464.9477  141.7247 C   0  0  0  0  0  0  0  0  0  0  0  0
 -116.3573 -463.5365  142.5428 C   0  0  0  0  0  0  0  0  0  0  0  0
 -117.3533 -463.5629  144.2053 C   0  0  0  0  0  0  0  0  0  0  0  0
 -117.3305 -463.2738  145.8241 C   0  0  0  0  0  0  0  0  0  0  0  0
 -116.9798 -463.5768  144.8170 C   0  0  0  0  0  0  0  0  0  0  0  0
 -116.9259 -462.1080  146.2398 C   0  0  0  0  0  0  0  0  0  0  0  0
 -118.1419 -463.3319  147.6835 C   0  0  0  0  0  0  0  0  0  0  0  0
 -118.2716 -462.3322  149.1772 C   0  0  0  0  0  0  0  0  0  0  0  0
 -118.0787 -461.1850  149.6504 C   0  0  0  0  0  0  0  0  0  0  0  0
 -118.0410 -460.1339  151.1051 C   0  0  0  0  0  0  0  0  0  0  0  0
 -118.9770 -460.5253  152.8837 C   0  0  0  0  0  0  0  0  0  0  0  0
 -118.9857 -459.5287  154.3289 C   0  0  0  0  0  0  0  0  0  0  0  0
 -119.3189 -458.7627  156.0726 C   0  0  0  0  0  0  0  0  0  0  0  0
 -119.7869 -459.1015  157.2375 C   0  0  0  0  0  0  0  0  0  0  0  0
 -121.6860 -459.7782  158.4144 C   0  0  0  0  0  0  0  0  0  0  0  0
 -120.5853 -459.6096  158.9687 C   0  0  0  0  0  0  0  0  0  0  0  0
 -120.4649 -457.8670  160.5698 C   0  0  0  0  0  0  0  0  0  0  0  0
 -120.2859 -456.1670  161.7861 C   0  0  0  0  0  0  0  0  0  0  0  0
 -121.2643 -456.9844  161.8623 C   0  0  0  0  0  0  0  0  0  0  0  0
 -122.2715 -457.9681  162.8254 C   0  0  0  0  0  0  0  0  0  0  0  0
 -121.8154 -458.5733  160.0182 C   0  0  0  0  0  0  0  0  0  0  0  0
 -121.1785 -459.4176  156.7524 C   0  0  0  0  0  0  0  0  0  0  0  0
 -120.3726 -460.8626  152.6701 C   0  0  0  0  0  0  0  0  0  0  0  0
 -119.7062 -462.1775  148.9797 C   0  0  0  0  0  0  0  0  0  0  0  0
 -118.6948 -464.0315  144.2104 C   0  0  0  0  0  0  0  0  0  0  0  0
 -117.8441 -465.5562  140.0639 C   0  0  0  0  0  0  0  0  0  0  0  0
 -116.6184 -467.3834  135.2545 C   0  0  0  0  0  0  0  0  0  0  0  0
 -115.6024 -468.8718  131.1185 C   0  0  0  0  0  0  0  0  0  0  0  0
 -113.7987 -471.3547  123.8043 H   0  0  0  0  0  0  0  0  0  0  0  0
 -112.7043 -473.1460  119.6638 H   0  0  0  0  0  0  0  0  0  0  0  0
 -111.4194 -474.7162  114.9145 H   0  0  0  0  0  0  0  0  0  0  0  0
 -110.4066 -476.2394  111.1473 H   0  0  0  0  0  0  0  0  0  0  0  0
 -108.7440 -477.6075  107.1449 H   0  0  0  0  0  0  0  0  0  0  0  0
 -108.6509 -479.2534  103.9160 H   0  0  0  0  0  0  0  0  0  0  0  0
 -106.5562 -477.7751  102.1005 H   0  0  0  0  0  0  0  0  0  0  0  0
 -109.2841 -478.0041  104.9047 H   0  0  0  0  0  0  0  0  0  0  0  0
 -107.0695 -477.6228  105.5738 H   0  0  0  0  0  0  0  0  0  0  0  0
 -108.4406 -476.6375  104.7437 H   0  0  0  0  0  0  0  0  0  0  0  0
 -106.6350 -477.5644  107.1736 H   0  0  0  0  0  0  0  0  0  0  0  0
 -107.3943 -475.7622  106.5534 H   0  0  0  0  0  0  0  0  0  0  0  0
 -107.3040 -474.5570  107.7088 H   0  0  0  0  0  0  0  0  0  0  0  0
 -107.9089 -474.9725  108.8390 H   0  0  0  0  0  0  0  0  0  0  0  0
 -108.4544 -476.9789  110.7693 H   0  0  0  0  0  0  0  0  0  0  0  0
 -108.6643 -474.3348  111.1908 H   0  0  0  0  0  0  0  0  0  0  0  0
 -110.5275 -476.0058  114.4663 H   0  0  0  0  0  0  0  0  0  0  0  0
 -109.0605 -473.4187  113.4122 H   0  0  0  0  0  0  0  0  0  0  0  0
 -110.5373 -474.7852  115.7518 H   0  0  0  0  0  0  0  0  0  0  0  0
 -109.6459 -472.6440  115.7405 H   0  0  0  0  0  0  0  0  0  0  0  0
 -110.6373 -475.1973  117.1083 H   0  0  0  0  0  0  0  0  0  0  0  0
 -110.1888 -471.8431  118.0100 H   0  0  0  0  0  0  0  0  0  0  0  0
 -109.5311 -471.8100  119.8109 H   0  0  0  0  0  0  0  0  0  0  0  0
 -110.8017 -471.0826  120.3500 H   0  0  0  0  0  0  0  0  0  0  0  0
 -114.1784 -472.5806  124.4348 H   0  0  0  0  0  0  0  0  0  0  0  0
 -111.3349 -470.2707  122.5874 H   0  0  0  0  0  0  0  0  0  0  0  0
 -113.2088 -471.5559  125.7457 H   0  0  0  0  0  0  0  0  0  0  0  0
 -111.8876 -469.4657  124.9167 H   0  0  0  0  0  0  0  0  0  0  0  0
 -114.6169 -470.4637  127.9382 H   0  0  0  0  0  0  0  0  0  0  0  0
 -112.4406 -468.6822  127.1980 H   0  0  0  0  0  0  0  0  0  0  0  0
 -112.4817 -467.4614  128.8811 H   0  0  0  0  0  0  0  0  0  0  0  0
 -113.0909 -467.9424  129.6339 H   0  0  0  0  0  0  0  0  0  0  0  0
 -114.3984 -469.6293  131.7277 H   0  0  0  0  0  0  0  0  0  0  0  0
 -113.5849 -467.0924  131.8152 H   0  0  0  0  0  0  0  0  0  0  0  0
 -115.7521 -468.7540  133.3684 H   0  0  0  0  0  0  0  0  0  0  0  0
 -114.1431 -466.3085  134.1000 H   0  0  0  0  0  0  0  0  0  0  0  0
 -115.2860 -466.5610  136.1621 H   0  0  0  0  0  0  0  0  0  0  0  0
 -114.6489 -465.4280  136.4015 H   0  0  0  0  0  0  0  0  0  0  0  0
 -115.4808 -467.6157  138.5906 H   0  0  0  0  0  0  0  0  0  0  0  0
 -115.2548 -464.6821  138.7278 H   0  0  0  0  0  0  0  0  0  0  0  0
 -118.7403 -466.9128  141.6213 H   0  0  0  0  0  0  0  0  0  0  0  0
 -115.7963 -463.9913  140.9387 H   0  0  0  0  0  0  0  0  0  0  0  0
 -116.4287 -463.8200  142.6471 H   0  0  0  0  0  0  0  0  0  0  0  0
 -116.3674 -462.9102  143.4804 H   0  0  0  0  0  0  0  0  0  0  0  0
 -118.6433 -462.5435  145.0757 H   0  0  0  0  0  0  0  0  0  0  0  0
 -117.2175 -462.7880  145.1685 H   0  0  0  0  0  0  0  0  0  0  0  0
 -116.9527 -464.3987  146.2609 H   0  0  0  0  0  0  0  0  0  0  0  0
 -116.4743 -460.7120  147.2944 H   0  0  0  0  0  0  0  0  0  0  0  0
 -119.6627 -464.3787  148.0599 H   0  0  0  0  0  0  0  0  0  0  0  0
 -118.1148 -460.9798  149.9597 H   0  0  0  0  0  0  0  0  0  0  0  0
 -118.9280 -462.2562  150.8670 H   0  0  0  0  0  0  0  0  0  0  0  0
 -118.6147 -459.9712  152.4282 H   0  0  0  0  0  0  0  0  0  0  0  0
 -120.4455 -461.5043  153.7367 H   0  0  0  0  0  0  0  0  0  0  0  0
 -119.1248 -458.9148  154.9485 H   0  0  0  0  0  0  0  0  0  0  0  0
 -117.7941 -458.3364  156.5551 H   0  0  0  0  0  0  0  0  0  0  0  0
 -119.7241 -458.1808  157.1509 H   0  0  0  0  0  0  0  0  0  0  0  0
 -122.1686 -460.2602  158.6841 H   0  0  0  0  0  0  0  0  0  0  0  0
 -120.1654 -459.0260  158.4944 H   0  0  0  0  0  0  0  0  0  0  0  0
 -120.9376 -459.0743  161.9073 H   0  0  0  0  0  0  0  0  0  0  0  0
 -120.8363 -456.7116  161.8568 H   0  0  0  0  0  0  0  0  0  0  0  0
 -123.0170 -457.2518  161.6667 H   0  0  0  0  0  0  0  0  0  0  0  0
 -121.5483 -456.4361  163.6312 H   0  0  0  0  0  0  0  0  0  0  0  0
 -122.4505 -458.1112  162.9199 H   0  0  0  0  0  0  0  0  0  0  0  0
 -121.6216 -458.2858  159.5858 H   0  0  0  0  0  0  0  0  0  0  0  0
 -120.7362 -459.7269  155.4528 H   0  0  0  0  0  0  0  0  0  0  0  0
 -120.0147 -461.0958  151.5654 H   0  0  0  0  0  0  0  0  0  0  0  0
 -119.1121 -462.9446  146.8022 H   0  0  0  0  0  0  0  0  0  0  0  0
 -118.1066 -464.8409  142.5566 H   0  0  0  0  0  0  0  0  0  0  0  0
 -116.6898 -466.9133  137.4090 H   0  0  0  0  0  0  0  0  0  0  0  0
 -114.8564 -469.2988  129.0205 H   0  0  0  0  0  0  0  0  0  0  0  0
  1  2  2  3  0  0  0
  1 69  1  0  0  0  0
  1 70  1  0  0  0  0
  2  3  1  0  0  0  0
  2 71  1  0  0  0  0
  3  4  2  3  0  0  0
  3 72  1  0  0  0  0
  4  5  1  0  0  0  0
  4 73  1  0  0  0  0
  5  6  2  3  0  0  0
  5 74  1  0  0  0  0
  6  7  1  0  0  0  0
  6 75  1  0  0  0  0
  7  8  2  3  0  0  0
  7 76  1  0  0  0  0
  8  9  1  0  0  0  0
  8 77  1  0  0  0  0
  9 10  1  0  0  0  0
  9 78  1  0  0  0  0
  9 79  1  0  0  0  0
 10 11  2  3  0  0  0
 10 80  1  0  0  0  0
 11 12  1  0  0  0  0
 11 81  1  0  0  0  0
 12 13  2  3  0  0  0
 12 82  1  0  0  0  0
 13 14  1  0  0  0  0
 13 83  1  0  0  0  0
 14 15  2  3  0  0  0
 14 84  1  0  0  0  0
 15 16  1  0  0  0  0
 15 85  1  0  0  0  0
 16 17  2  3  0  0  0
 16 86  1  0  0  0  0
 17 18  1  0  0  0  0
 17 87  1  0  0  0  0
 18 19  2  3  0  0  0
 18 88  1  0  0  0  0
 19 20  1  0  0  0  0
 19 89  1  0  0  0  0
 20 21  2  3  0  0  0
 20 90  1  0  0  0  0
 21 22  1  0  0  0  0
 21 91  1  0  0  0  0
 22 23  2  3  0  0  0
 22 92  1  0  0  0  0
 23 24  1  0  0  0  0
 23 93  1  0  0  0  0
 24 25  2  3  0  0  0
 24 94  1  0  0  0  0
 25 26  1  0  0  0  0
 25 95  1  0  0  0  0
 26 27  2  3  0  0  0
 26 96  1  0  0  0  0
 27 28  1  0  0  0  0
 27 97  1  0  0  0  0
 28 29  2  3  0  0  0
 28 98  1  0  0  0  0
 29 30  1  0  0  0  0
 29 99  1  0  0  0  0
 30 31  2  3  0  0  0
 30100  1  0  0  0  0
 31 32  1  0  0  0  0
 31101  1  0  0  0  0
 32 33  2  3  0  0  0
 32102  1  0  0  0  0
 33 34  1  0  0  0  0
 33103  1  0  0  0  0
 34 35  2  3  0  0  0
 34104  1  0  0  0  0
 35 36  1  0  0  0  0
 35105  1  0  0  0  0
 36 37  2  3  0  0  0
 36106  1  0  0  0  0
 37 38  1  0  0  0  0
 37107  1  0  0  0  0
 38 39  2  3  0  0  0
 38108  1  0  0  0  0
 39 40  1  0  0  0  0
 39109  1  0  0  0  0
 40 41  2  3  0  0  0
 40110  1  0  0  0  0
 41 42  1  0  0  0  0
 41111  1  0  0  0  0
 42 43  2  3  0  0  0
 42112  1  0  0  0  0
 43 44  1  0  0  0  0
 43113  1  0  0  0  0
 44 45  2  3  0  0  0
 44114  1  0  0  0  0
 45 46  1  0  0  0  0
 45115  1  0  0  0  0
 46 47  2  3  0  0  0
 46116  1  0  0  0  0
 47 48  1  0  0  0  0
 47117  1  0  0  0  0
 48 49  2  3  0  0  0
 48118  1  0  0  0  0
 49 50  1  0  0  0  0
 49119  1  0  0  0  0
 50 51  2  3  0  0  0
 50120  1  0  0  0  0
 51 52  1  0  0  0  0
 51121  1  0  0  0  0
 52 53  2  3  0  0  0
 52122  1  0  0  0  0
 53 54  1  0  0  0  0
 53123  1  0  0  0  0
 54 55  2  3  0  0  0
 54124  1  0  0  0  0
 55 56  1  0  0  0  0
 55125  1  0  0  0  0
 56 57  2  3  0  0  0
 56126  1  0  0  0  0
 57 58  1  0  0  0  0
 57127  1  0  0  0  0
 58 59  2  3  0  0  0
 58128  1  0  0  0  0
 59 60  1  0  0  0  0
 59129  1  0  0  0  0
 60 61  2  3  0  0  0
 60130  1  0  0  0  0
 61 62  1  0  0  0  0
 61131  1  0  0  0  0
 62 63  2  3  0  0  0
 62132  1  0  0  0  0
 63 64  1  0  0  0  0
 63133  1  0  0  0  0
 64 65  2  3  0  0  0
 64134  1  0  0  0  0
 65 66  1  0  0  0  0
 65135  1  0  0  0  0
 66 67  2  3  0  0  0
 66136  1  0  0  0  0
 67 68  1  0  0  0  0
 67137  1  0  0  0  0
 68 69  2  3  0  0  0
 68138  1  0  0  0  0
 69139  1  0  0  0  0
M  END
$$$$
