
 OpenBabel04232216453D

 44 45  0  0  0  0  0  0  0  0999 V2000
    5.2709   -0.3908   -2.9028 C   0  0  0  0  0  0  0  0  0  0  0  0
    5.9427   -0.6221   -1.5451 C   0  0  0  0  0  0  0  0  0  0  0  0
    4.9260   -0.1373   -0.5554 C   0  0  0  0  0  0  0  0  0  0  0  0
    4.8561    1.0822    0.0208 C   0  0  0  0  0  0  0  0  0  0  0  0
    5.1382    2.4295   -0.6105 C   0  0  0  0  0  0  0  0  0  0  0  0
    5.4667    0.8107    1.3088 C   0  0  0  0  0  0  0  0  0  0  0  0
    4.7098   -0.2956    2.1002 C   0  0  0  0  0  0  0  0  0  0  0  0
    6.8224    0.8824    1.3164 C   0  0  0  0  0  0  0  0  0  0  0  0
    7.8558    1.6296    0.4956 C   0  0  0  0  0  0  0  0  0  0  0  0
    7.4263   -0.2864    1.8861 C   0  0  0  0  0  0  0  0  0  0  0  0
    7.9321   -1.2851    1.1711 C   0  0  0  0  0  0  0  0  0  0  0  0
    8.8779   -1.9877    2.0741 C   0  0  0  0  0  0  0  0  0  0  0  0
   10.0140   -1.2857    2.2736 C   0  0  0  0  0  0  0  0  0  0  0  0
   11.2375   -1.6818    1.6313 C   0  0  0  0  0  0  0  0  0  0  0  0
   11.2185   -1.9976    0.3233 C   0  0  0  0  0  0  0  0  0  0  0  0
   10.1374   -2.9708   -0.1268 C   0  0  0  0  0  0  0  0  0  0  0  0
   10.6185   -4.4356    0.2704 C   0  0  0  0  0  0  0  0  0  0  0  0
   12.1298   -4.7659    0.4143 C   0  0  0  0  0  0  0  0  0  0  0  0
    8.8866   -2.8094   -0.5531 N   0  0  0  0  0  0  0  0  0  0  0  0
    8.0383   -1.6374   -0.2513 N   0  0  0  0  0  0  0  0  0  0  0  0
    7.1219   -1.2268   -1.4070 N   0  0  0  0  0  0  0  0  0  0  0  0
    4.3472   -1.0241   -2.9653 H   0  0  0  0  0  0  0  0  0  0  0  0
    5.8722   -0.5707   -3.7842 H   0  0  0  0  0  0  0  0  0  0  0  0
    4.8655    0.6357   -2.9644 H   0  0  0  0  0  0  0  0  0  0  0  0
    3.9977   -0.6958   -0.5760 H   0  0  0  0  0  0  0  0  0  0  0  0
    4.2013    2.9150   -0.9116 H   0  0  0  0  0  0  0  0  0  0  0  0
    5.7640    2.3480   -1.5059 H   0  0  0  0  0  0  0  0  0  0  0  0
    5.6045    3.1402    0.0834 H   0  0  0  0  0  0  0  0  0  0  0  0
    3.6263   -0.1776    2.0150 H   0  0  0  0  0  0  0  0  0  0  0  0
    4.9820   -0.3351    3.1570 H   0  0  0  0  0  0  0  0  0  0  0  0
    4.9349   -1.2967    1.6784 H   0  0  0  0  0  0  0  0  0  0  0  0
    7.4912    2.4751   -0.0792 H   0  0  0  0  0  0  0  0  0  0  0  0
    8.3584    0.9784   -0.2383 H   0  0  0  0  0  0  0  0  0  0  0  0
    8.6490    2.0244    1.1473 H   0  0  0  0  0  0  0  0  0  0  0  0
    7.5567   -0.2090    2.9558 H   0  0  0  0  0  0  0  0  0  0  0  0
    8.8369   -3.0685    2.0276 H   0  0  0  0  0  0  0  0  0  0  0  0
    9.9798   -0.1910    2.2397 H   0  0  0  0  0  0  0  0  0  0  0  0
   12.1586   -1.4170    2.1458 H   0  0  0  0  0  0  0  0  0  0  0  0
   12.1663   -2.1007   -0.2007 H   0  0  0  0  0  0  0  0  0  0  0  0
   10.1222   -5.1919   -0.3321 H   0  0  0  0  0  0  0  0  0  0  0  0
   10.2405   -4.5605    1.2983 H   0  0  0  0  0  0  0  0  0  0  0  0
   12.5952   -4.9570   -0.5568 H   0  0  0  0  0  0  0  0  0  0  0  0
   12.2610   -5.6671    1.0253 H   0  0  0  0  0  0  0  0  0  0  0  0
   12.7218   -3.9968    0.9187 H   0  0  0  0  0  0  0  0  0  0  0  0
  1  2  1  0  0  0  0
  1 22  1  0  0  0  0
  1 23  1  0  0  0  0
  1 24  1  0  0  0  0
  2  3  1  0  0  0  0
  2 21  2  0  0  0  0
  3  4  2  0  0  0  0
  3 25  1  0  0  0  0
  4  5  1  0  0  0  0
  4  6  1  0  0  0  0
  5 26  1  0  0  0  0
  5 27  1  0  0  0  0
  5 28  1  0  0  0  0
  6  7  1  0  0  0  0
  6  8  2  0  0  0  0
  7 29  1  0  0  0  0
  7 30  1  0  0  0  0
  7 31  1  0  0  0  0
  8  9  1  0  0  0  0
  8 10  1  0  0  0  0
  9 32  1  0  0  0  0
  9 33  1  0  0  0  0
  9 34  1  0  0  0  0
 10 11  2  0  0  0  0
 10 35  1  0  0  0  0
 11 12  1  0  0  0  0
 11 20  1  0  0  0  0
 12 13  2  0  0  0  0
 12 36  1  0  0  0  0
 13 14  1  0  0  0  0
 13 37  1  0  0  0  0
 14 15  2  0  0  0  0
 14 38  1  0  0  0  0
 15 16  1  0  0  0  0
 15 39  1  0  0  0  0
 16 17  1  0  0  0  0
 16 19  2  0  0  0  0
 17 18  1  0  0  0  0
 17 40  1  0  0  0  0
 17 41  1  0  0  0  0
 18 42  1  0  0  0  0
 18 43  1  0  0  0  0
 18 44  1  0  0  0  0
 19 20  1  0  0  0  0
 20 21  1  0  0  0  0
M  END
$$$$
