
 OpenBabel04232216513D

 63 64  0  0  1  0  0  0  0  0999 V2000
    3.0057   -1.3377    0.6998 C   0  0  0  0  0  0  0  0  0  0  0  0
    4.4389   -1.4900    1.8546 C   0  0  0  0  0  0  0  0  0  0  0  0
    5.7502   -2.8081    2.5134 C   0  0  0  0  0  0  0  0  0  0  0  0
    7.6028   -2.5612    3.3481 C   0  0  3  0  0  0  0  0  0  0  0  0
    7.6169   -1.4349    1.8783 C   0  0  0  0  0  0  0  0  0  0  0  0
    6.6918   -1.5821    4.2560 C   0  0  0  0  0  0  0  0  0  0  0  0
    7.5330   -0.3718    4.2653 C   0  0  0  0  0  0  0  0  0  0  0  0
    8.2680   -0.5800    5.4828 C   0  0  0  0  0  0  0  0  0  0  0  0
    9.6942   -0.5007    5.0197 C   0  0  0  0  0  0  0  0  0  0  0  0
   10.4289   -0.7140    6.2906 C   0  0  0  0  0  0  0  0  0  0  0  0
   11.9168   -0.5476    5.9884 C   0  0  0  0  0  0  0  0  0  0  0  0
   12.8856   -1.1607    7.1444 C   0  0  0  0  0  0  0  0  0  0  0  0
   12.8196   -0.7641    8.3073 O   0  0  0  0  0  0  0  0  0  0  0  0
   13.6146   -2.5366    6.7662 C   0  0  0  0  0  0  0  0  0  0  0  0
   12.3916   -3.0440    5.7999 C   0  0  0  0  0  0  0  0  0  0  0  0
   10.4888   -3.5880    5.5562 C   0  0  0  0  0  0  0  0  0  0  0  0
   11.2943   -4.6627    7.0960 C   0  0  0  0  0  0  0  0  0  0  0  0
   13.0772   -4.7648    8.0915 C   0  0  0  0  0  0  0  0  0  0  0  0
   14.0927   -5.1261    9.7402 C   0  0  0  0  0  0  0  0  0  0  0  0
   15.8412   -4.9265   10.2744 C   0  0  0  0  0  0  0  0  0  0  0  0
   17.1617   -4.8447   11.1896 C   0  0  0  0  0  0  0  0  0  0  0  0
   17.8951   -3.9387   10.0435 C   0  0  0  0  0  0  0  0  0  0  0  0
   16.7801   -3.1029    8.7470 C   0  0  0  0  0  0  0  0  0  0  0  0
   15.4808   -2.7530    7.2910 C   0  0  0  0  0  0  0  0  0  0  0  0
   16.1604   -2.3983    6.2944 O   0  0  0  0  0  0  0  0  0  0  0  0
    8.9650   -3.3085    4.6769 N   0  0  0  0  0  0  0  0  0  0  0  0
    2.4728   -0.3494    0.8747 H   0  0  0  0  0  0  0  0  0  0  0  0
    2.1478   -2.0267    0.8248 H   0  0  0  0  0  0  0  0  0  0  0  0
    3.2033   -1.2262   -0.3895 H   0  0  0  0  0  0  0  0  0  0  0  0
    3.7982   -1.2638    2.7223 H   0  0  0  0  0  0  0  0  0  0  0  0
    4.8896   -0.5150    1.5719 H   0  0  0  0  0  0  0  0  0  0  0  0
    5.8367   -3.3862    1.5745 H   0  0  0  0  0  0  0  0  0  0  0  0
    5.0702   -3.2860    3.2266 H   0  0  0  0  0  0  0  0  0  0  0  0
    6.8059   -0.6746    2.1068 H   0  0  0  0  0  0  0  0  0  0  0  0
    7.0538   -1.7495    0.9604 H   0  0  0  0  0  0  0  0  0  0  0  0
    8.3741   -0.6821    1.6280 H   0  0  0  0  0  0  0  0  0  0  0  0
    6.3299   -2.1674    5.1056 H   0  0  0  0  0  0  0  0  0  0  0  0
    5.7599   -1.1933    3.8571 H   0  0  0  0  0  0  0  0  0  0  0  0
    7.0621    0.5790    4.0564 H   0  0  0  0  0  0  0  0  0  0  0  0
    8.2818   -0.3947    3.4694 H   0  0  0  0  0  0  0  0  0  0  0  0
    8.0640   -1.5723    5.9242 H   0  0  0  0  0  0  0  0  0  0  0  0
    7.9014    0.1569    6.1771 H   0  0  0  0  0  0  0  0  0  0  0  0
    9.8997    0.4512    4.5210 H   0  0  0  0  0  0  0  0  0  0  0  0
    9.9564   -1.2534    4.2453 H   0  0  0  0  0  0  0  0  0  0  0  0
   10.0908   -1.6891    6.6693 H   0  0  0  0  0  0  0  0  0  0  0  0
   10.0347   -0.0211    7.0307 H   0  0  0  0  0  0  0  0  0  0  0  0
   12.1150    0.4892    5.7185 H   0  0  0  0  0  0  0  0  0  0  0  0
   12.0980   -1.0474    5.0177 H   0  0  0  0  0  0  0  0  0  0  0  0
   11.7220   -2.6728    6.6255 H   0  0  0  0  0  0  0  0  0  0  0  0
   11.0649   -5.7100    6.9494 H   0  0  0  0  0  0  0  0  0  0  0  0
   10.7737   -4.1998    7.9188 H   0  0  0  0  0  0  0  0  0  0  0  0
   13.0669   -3.7367    8.4563 H   0  0  0  0  0  0  0  0  0  0  0  0
   13.8756   -4.9649    7.3516 H   0  0  0  0  0  0  0  0  0  0  0  0
   13.9479   -6.1485   10.0733 H   0  0  0  0  0  0  0  0  0  0  0  0
   13.7308   -4.3597   10.4384 H   0  0  0  0  0  0  0  0  0  0  0  0
   15.7505   -3.8521   10.4837 H   0  0  0  0  0  0  0  0  0  0  0  0
   16.3773   -5.4442    9.4772 H   0  0  0  0  0  0  0  0  0  0  0  0
   17.7797   -5.7596   11.4253 H   0  0  0  0  0  0  0  0  0  0  0  0
   17.2597   -4.2898   12.1654 H   0  0  0  0  0  0  0  0  0  0  0  0
   18.5715   -3.2083   10.5823 H   0  0  0  0  0  0  0  0  0  0  0  0
   18.7064   -4.6025    9.6286 H   0  0  0  0  0  0  0  0  0  0  0  0
   17.3284   -2.1463    8.8227 H   0  0  0  0  0  0  0  0  0  0  0  0
   17.3878   -3.7300    8.0439 H   0  0  0  0  0  0  0  0  0  0  0  0
  1  2  1  0  0  0  0
  1 27  1  0  0  0  0
  1 28  1  0  0  0  0
  1 29  1  0  0  0  0
  2  3  1  0  0  0  0
  2 30  1  0  0  0  0
  2 31  1  0  0  0  0
  3  4  1  0  0  0  0
  3 32  1  0  0  0  0
  3 33  1  0  0  0  0
  4  5  1  0  0  0  0
  4  6  1  0  0  0  0
  4 26  1  0  0  0  0
  5 34  1  0  0  0  0
  5 35  1  0  0  0  0
  5 36  1  0  0  0  0
  6  7  1  0  0  0  0
  6 37  1  0  0  0  0
  6 38  1  0  0  0  0
  7  8  1  0  0  0  0
  7 39  1  0  0  0  0
  7 40  1  0  0  0  0
  8  9  1  0  0  0  0
  8 41  1  0  0  0  0
  8 42  1  0  0  0  0
  9 10  1  0  0  0  0
  9 43  1  0  0  0  0
  9 44  1  0  0  0  0
 10 11  1  0  0  0  0
 10 45  1  0  0  0  0
 10 46  1  0  0  0  0
 11 12  1  0  0  0  0
 11 47  1  0  0  0  0
 11 48  1  0  0  0  0
 12 13  2  0  0  0  0
 12 14  1  0  0  0  0
 14 15  2  3  0  0  0
 14 24  1  0  0  0  0
 15 16  1  0  0  0  0
 15 49  1  0  0  0  0
 16 17  1  0  0  0  0
 16 26  2  3  0  0  0
 17 18  1  0  0  0  0
 17 50  1  0  0  0  0
 17 51  1  0  0  0  0
 18 19  1  0  0  0  0
 18 52  1  0  0  0  0
 18 53  1  0  0  0  0
 19 20  1  0  0  0  0
 19 54  1  0  0  0  0
 19 55  1  0  0  0  0
 20 21  1  0  0  0  0
 20 56  1  0  0  0  0
 20 57  1  0  0  0  0
 21 22  1  0  0  0  0
 21 58  1  0  0  0  0
 21 59  1  0  0  0  0
 22 23  1  0  0  0  0
 22 60  1  0  0  0  0
 22 61  1  0  0  0  0
 23 24  1  0  0  0  0
 23 62  1  0  0  0  0
 23 63  1  0  0  0  0
 24 25  2  0  0  0  0
M  END
$$$$
