
 OpenBabel04232216433D

 53 54  0  0  0  0  0  0  0  0999 V2000
    5.4081    2.8197    0.8443 C   0  0  0  0  0  0  0  0  0  0  0  0
    4.1544    2.2774    0.6926 C   0  0  0  0  0  0  0  0  0  0  0  0
    3.5928    1.0898   -0.1134 C   0  0  0  0  0  0  0  0  0  0  0  0
    4.6400    0.0350   -0.3012 C   0  0  0  0  0  0  0  0  0  0  0  0
    5.5494    0.4181   -1.4833 C   0  0  0  0  0  0  0  0  0  0  0  0
    4.8217    1.3978   -2.5619 C   0  0  0  0  0  0  0  0  0  0  0  0
    4.8848    2.9535   -2.3912 C   0  0  0  0  0  0  0  0  0  0  0  0
    6.8654    0.0899   -1.7331 C   0  0  0  0  0  0  0  0  0  0  0  0
    7.8578   -0.6913   -0.8713 C   0  0  0  0  0  0  0  0  0  0  0  0
    7.4018   -2.0382   -0.4738 C   0  0  0  0  0  0  0  0  0  0  0  0
    7.6038   -2.6142    0.7276 C   0  0  0  0  0  0  0  0  0  0  0  0
    6.6634   -3.6631    1.0555 C   0  0  0  0  0  0  0  0  0  0  0  0
    6.3198   -4.0375    2.3000 C   0  0  0  0  0  0  0  0  0  0  0  0
    4.8550   -3.9874    2.4559 C   0  0  0  0  0  0  0  0  0  0  0  0
    4.4237   -2.9385    3.1651 C   0  0  0  0  0  0  0  0  0  0  0  0
    3.4864   -1.9693    2.5495 C   0  0  0  0  0  0  0  0  0  0  0  0
    3.5673   -1.1230    1.5777 N   0  0  0  0  0  0  0  0  0  0  0  0
    4.6616   -0.8602    0.7431 C   0  0  0  0  0  0  0  0  0  0  0  0
    7.5806    0.8601   -2.8157 C   0  0  0  0  0  0  0  0  0  0  0  0
    8.7430    0.7290   -3.4042 C   0  0  0  0  0  0  0  0  0  0  0  0
    9.3929    2.0502   -3.5124 C   0  0  0  0  0  0  0  0  0  0  0  0
   10.1186    2.3596   -2.4176 C   0  0  0  0  0  0  0  0  0  0  0  0
    9.7863    3.4860   -1.5359 C   0  0  0  0  0  0  0  0  0  0  0  0
    8.8080    3.6115   -0.5890 C   0  0  0  0  0  0  0  0  0  0  0  0
    8.0049    2.5908    0.1222 C   0  0  0  0  0  0  0  0  0  0  0  0
    6.7777    2.2918    0.6411 C   0  0  0  0  0  0  0  0  0  0  0  0
    5.4278    3.7734    1.3708 H   0  0  0  0  0  0  0  0  0  0  0  0
    3.3124    2.8361    1.0890 H   0  0  0  0  0  0  0  0  0  0  0  0
    3.2019    1.5725   -1.0093 H   0  0  0  0  0  0  0  0  0  0  0  0
    2.6422    0.6067    0.1672 H   0  0  0  0  0  0  0  0  0  0  0  0
    3.7750    1.0991   -2.7034 H   0  0  0  0  0  0  0  0  0  0  0  0
    5.2131    1.1847   -3.5631 H   0  0  0  0  0  0  0  0  0  0  0  0
    4.3168    3.3523   -1.5484 H   0  0  0  0  0  0  0  0  0  0  0  0
    4.4396    3.4409   -3.2670 H   0  0  0  0  0  0  0  0  0  0  0  0
    5.9001    3.3492   -2.2915 H   0  0  0  0  0  0  0  0  0  0  0  0
    8.1338   -0.1100    0.0115 H   0  0  0  0  0  0  0  0  0  0  0  0
    8.7966   -0.8563   -1.4026 H   0  0  0  0  0  0  0  0  0  0  0  0
    6.7231   -2.4873   -1.1949 H   0  0  0  0  0  0  0  0  0  0  0  0
    8.1873   -2.1270    1.5079 H   0  0  0  0  0  0  0  0  0  0  0  0
    5.8997   -3.7794    0.2797 H   0  0  0  0  0  0  0  0  0  0  0  0
    6.9407   -3.8339    3.1659 H   0  0  0  0  0  0  0  0  0  0  0  0
    4.2845   -4.3395    1.5927 H   0  0  0  0  0  0  0  0  0  0  0  0
    4.9418   -2.5717    4.0375 H   0  0  0  0  0  0  0  0  0  0  0  0
    2.4828   -1.9865    3.0394 H   0  0  0  0  0  0  0  0  0  0  0  0
    5.5676   -1.3502    1.0171 H   0  0  0  0  0  0  0  0  0  0  0  0
    7.1257    1.8437   -2.8934 H   0  0  0  0  0  0  0  0  0  0  0  0
    9.3783   -0.1539   -3.2875 H   0  0  0  0  0  0  0  0  0  0  0  0
    8.7352    2.8103   -3.9506 H   0  0  0  0  0  0  0  0  0  0  0  0
   10.8181    1.6142   -2.0318 H   0  0  0  0  0  0  0  0  0  0  0  0
   10.4809    4.3089   -1.6989 H   0  0  0  0  0  0  0  0  0  0  0  0
    8.8809    4.5539   -0.0206 H   0  0  0  0  0  0  0  0  0  0  0  0
    8.7433    1.8180    0.3960 H   0  0  0  0  0  0  0  0  0  0  0  0
    6.7897    1.3349    1.1802 H   0  0  0  0  0  0  0  0  0  0  0  0
  1  2  2  3  0  0  0
  1 26  1  0  0  0  0
  1 27  1  0  0  0  0
  2  3  1  0  0  0  0
  2 28  1  0  0  0  0
  3  4  1  0  0  0  0
  3 29  1  0  0  0  0
  3 30  1  0  0  0  0
  4  5  1  0  0  0  0
  4 18  2  3  0  0  0
  5  6  1  0  0  0  0
  5  8  2  3  0  0  0
  6  7  1  0  0  0  0
  6 31  1  0  0  0  0
  6 32  1  0  0  0  0
  7 33  1  0  0  0  0
  7 34  1  0  0  0  0
  7 35  1  0  0  0  0
  8  9  1  0  0  0  0
  8 19  1  0  0  0  0
  9 10  1  0  0  0  0
  9 36  1  0  0  0  0
  9 37  1  0  0  0  0
 10 11  2  3  0  0  0
 10 38  1  0  0  0  0
 11 12  1  0  0  0  0
 11 39  1  0  0  0  0
 12 13  2  3  0  0  0
 12 40  1  0  0  0  0
 13 14  1  0  0  0  0
 13 41  1  0  0  0  0
 14 15  2  3  0  0  0
 14 42  1  0  0  0  0
 15 16  1  0  0  0  0
 15 43  1  0  0  0  0
 16 17  2  3  0  0  0
 16 44  1  0  0  0  0
 17 18  1  0  0  0  0
 18 45  1  0  0  0  0
 19 20  2  3  0  0  0
 19 46  1  0  0  0  0
 20 21  1  0  0  0  0
 20 47  1  0  0  0  0
 21 22  2  3  0  0  0
 21 48  1  0  0  0  0
 22 23  1  0  0  0  0
 22 49  1  0  0  0  0
 23 24  2  3  0  0  0
 23 50  1  0  0  0  0
 24 25  1  0  0  0  0
 24 51  1  0  0  0  0
 25 26  2  3  0  0  0
 25 52  1  0  0  0  0
 26 53  1  0  0  0  0
M  END
$$$$
