
 OpenBabel04232217013D

 97 96  0  0  0  0  0  0  0  0999 V2000
   18.9950   19.7430  -11.4568 O   0  0  0  0  0  0  0  0  0  0  0  0
   18.3254   19.3908  -10.2648 N   0  0  0  0  0  0  0  0  0  0  0  0
   19.0276   18.4952   -9.6335 C   0  0  0  0  0  0  0  0  0  0  0  0
   18.5328   17.9199   -8.3315 C   0  0  0  0  0  0  0  0  0  0  0  0
   17.0668   17.8844   -8.2803 N   0  0  0  0  0  0  0  0  0  0  0  0
   16.5349   16.9910   -9.3187 N   0  0  0  0  0  0  0  0  0  0  0  0
   17.0191   15.6591   -9.2204 N   0  0  0  0  0  0  0  0  0  0  0  0
   16.5584   14.8666  -10.2903 N   0  0  0  0  0  0  0  0  0  0  0  0
   17.0419   13.5518  -10.1656 N   0  0  0  0  0  0  0  0  0  0  0  0
   16.5873   12.9508   -8.9778 N   0  0  0  0  0  0  0  0  0  0  0  0
   17.1139   11.6681   -8.8553 N   0  0  0  0  0  0  0  0  0  0  0  0
   16.7250   11.1297   -7.5980 N   0  0  0  0  0  0  0  0  0  0  0  0
   17.1543    9.7923   -7.4612 N   0  0  0  0  0  0  0  0  0  0  0  0
   18.6106    9.7321   -7.4825 N   0  0  0  0  0  0  0  0  0  0  0  0
   19.0877    8.3728   -7.3092 N   0  0  0  0  0  0  0  0  0  0  0  0
   18.7142    7.4688   -8.3709 N   0  0  0  0  0  0  0  0  0  0  0  0
   19.4399    5.9982   -8.1402 S   0  0  0  0  0  0  0  0  0  0  0  0
   18.6977    4.9660   -9.7590 S   0  0  0  0  0  0  0  0  0  0  0  0
   19.4184    5.8810  -11.4663 S   0  0  0  0  0  0  0  0  0  0  0  0
   21.4792    5.6901  -11.5139 S   0  0  0  0  0  0  0  0  0  0  0  0
   22.1248    6.6565  -13.2511 S   0  0  0  0  0  0  0  0  0  0  0  0
   24.2171    6.6563  -13.2423 S   0  0  0  0  0  0  0  0  0  0  0  0
   24.8899    7.5529  -15.0187 S   0  0  0  0  0  0  0  0  0  0  0  0
   26.9954    7.5490  -15.0043 S   0  0  0  0  0  0  0  0  0  0  0  0
   27.6844    8.4542  -16.7779 S   0  0  0  0  0  0  0  0  0  0  0  0
   29.7930    8.4475  -16.7652 S   0  0  0  0  0  0  0  0  0  0  0  0
   30.4841    9.3534  -18.5404 S   0  0  0  0  0  0  0  0  0  0  0  0
   32.5935    9.3474  -18.5286 S   0  0  0  0  0  0  0  0  0  0  0  0
   33.2843   10.2534  -20.3041 S   0  0  0  0  0  0  0  0  0  0  0  0
   35.3937   10.2474  -20.2923 S   0  0  0  0  0  0  0  0  0  0  0  0
   36.0844   11.1534  -22.0677 S   0  0  0  0  0  0  0  0  0  0  0  0
   38.1938   11.1474  -22.0559 S   0  0  0  0  0  0  0  0  0  0  0  0
   38.8844   12.0533  -23.8313 S   0  0  0  0  0  0  0  0  0  0  0  0
   40.9938   12.0473  -23.8195 S   0  0  0  0  0  0  0  0  0  0  0  0
   41.6844   12.9533  -25.5949 S   0  0  0  0  0  0  0  0  0  0  0  0
   43.7938   12.9472  -25.5831 S   0  0  0  0  0  0  0  0  0  0  0  0
   44.4844   13.8532  -27.3584 S   0  0  0  0  0  0  0  0  0  0  0  0
   46.5938   13.8472  -27.3466 S   0  0  0  0  0  0  0  0  0  0  0  0
   47.2844   14.7531  -29.1220 S   0  0  0  0  0  0  0  0  0  0  0  0
   49.3938   14.7471  -29.1102 S   0  0  0  0  0  0  0  0  0  0  0  0
   50.0844   15.6530  -30.8856 S   0  0  0  0  0  0  0  0  0  0  0  0
   52.1938   15.6470  -30.8738 S   0  0  0  0  0  0  0  0  0  0  0  0
   52.8844   16.5530  -32.6491 S   0  0  0  0  0  0  0  0  0  0  0  0
   54.9938   16.5469  -32.6373 S   0  0  0  0  0  0  0  0  0  0  0  0
   55.6844   17.4529  -34.4127 S   0  0  0  0  0  0  0  0  0  0  0  0
   57.7938   17.4469  -34.4009 S   0  0  0  0  0  0  0  0  0  0  0  0
   58.4844   18.3528  -36.1762 S   0  0  0  0  0  0  0  0  0  0  0  0
   60.5938   18.3468  -36.1644 S   0  0  0  0  0  0  0  0  0  0  0  0
   61.2844   19.2527  -37.9398 S   0  0  0  0  0  0  0  0  0  0  0  0
   63.3937   19.2467  -37.9280 S   0  0  0  0  0  0  0  0  0  0  0  0
   64.0844   20.1527  -39.7034 S   0  0  0  0  0  0  0  0  0  0  0  0
   66.1937   20.1466  -39.6916 S   0  0  0  0  0  0  0  0  0  0  0  0
   66.8844   21.0526  -41.4669 S   0  0  0  0  0  0  0  0  0  0  0  0
   68.9937   21.0466  -41.4551 S   0  0  0  0  0  0  0  0  0  0  0  0
   69.6844   21.9525  -43.2305 S   0  0  0  0  0  0  0  0  0  0  0  0
   71.7937   21.9465  -43.2187 S   0  0  0  0  0  0  0  0  0  0  0  0
   72.4843   22.8524  -44.9940 S   0  0  0  0  0  0  0  0  0  0  0  0
   74.5937   22.8464  -44.9822 S   0  0  0  0  0  0  0  0  0  0  0  0
   75.2843   23.7524  -46.7576 S   0  0  0  0  0  0  0  0  0  0  0  0
   77.3937   23.7463  -46.7458 S   0  0  0  0  0  0  0  0  0  0  0  0
   78.0843   24.6523  -48.5212 S   0  0  0  0  0  0  0  0  0  0  0  0
   80.1937   24.6463  -48.5094 S   0  0  0  0  0  0  0  0  0  0  0  0
   80.8843   25.5522  -50.2847 S   0  0  0  0  0  0  0  0  0  0  0  0
   82.9937   25.5462  -50.2729 S   0  0  0  0  0  0  0  0  0  0  0  0
   83.6843   26.4521  -52.0483 S   0  0  0  0  0  0  0  0  0  0  0  0
   85.7936   26.4461  -52.0365 S   0  0  0  0  0  0  0  0  0  0  0  0
   86.4842   27.3520  -53.8118 S   0  0  0  0  0  0  0  0  0  0  0  0
   88.5934   27.3459  -53.7999 S   0  0  0  0  0  0  0  0  0  0  0  0
   89.2836   28.2518  -55.5750 S   0  0  0  0  0  0  0  0  0  0  0  0
   91.3923   28.2455  -55.5627 S   0  0  0  0  0  0  0  0  0  0  0  0
   92.0814   29.1510  -57.3372 S   0  0  0  0  0  0  0  0  0  0  0  0
   94.1881   29.1441  -57.3234 S   0  0  0  0  0  0  0  0  0  0  0  0
   94.8738   30.0483  -59.0958 S   0  0  0  0  0  0  0  0  0  0  0  0
   96.9754   30.0377  -59.0786 S   0  0  0  0  0  0  0  0  0  0  0  0
   97.6506   30.9457  -60.8431 S   0  0  0  0  0  0  0  0  0  0  0  0
   99.7411   30.9276  -60.8231 S   0  0  0  0  0  0  0  0  0  0  0  0
  100.3847   31.7758  -62.6114 S   0  0  0  0  0  0  0  0  0  0  0  0
  102.4506   31.9173  -62.5212 S   0  0  0  0  0  0  0  0  0  0  0  0
  103.0642   32.6928  -64.3378 S   0  0  0  0  0  0  0  0  0  0  0  0
  102.5106   34.6729  -64.3013 S   0  0  0  0  0  0  0  0  0  0  0  0
   18.4131   20.4320  -11.8198 H   0  0  0  0  0  0  0  0  0  0  0  0
   20.0120   18.1453   -9.9945 H   0  0  0  0  0  0  0  0  0  0  0  0
   18.9176   18.5311   -7.5037 H   0  0  0  0  0  0  0  0  0  0  0  0
   18.9713   16.9161   -8.1817 H   0  0  0  0  0  0  0  0  0  0  0  0
   16.6865   18.8234   -8.3853 H   0  0  0  0  0  0  0  0  0  0  0  0
   16.7853   17.2861  -10.2691 H   0  0  0  0  0  0  0  0  0  0  0  0
   16.6889   15.1907   -8.3694 H   0  0  0  0  0  0  0  0  0  0  0  0
   16.8741   15.2380  -11.1896 H   0  0  0  0  0  0  0  0  0  0  0  0
   18.0545   13.5393  -10.1487 H   0  0  0  0  0  0  0  0  0  0  0  0
   15.5859   12.9097   -8.9364 H   0  0  0  0  0  0  0  0  0  0  0  0
   18.1206   11.7631   -8.9142 H   0  0  0  0  0  0  0  0  0  0  0  0
   15.7092   11.1976   -7.5144 H   0  0  0  0  0  0  0  0  0  0  0  0
   16.7686    9.2195   -8.2096 H   0  0  0  0  0  0  0  0  0  0  0  0
   18.9629   10.3263   -6.7276 H   0  0  0  0  0  0  0  0  0  0  0  0
   18.7949    7.9994   -6.4058 H   0  0  0  0  0  0  0  0  0  0  0  0
   19.0227    7.8561   -9.2652 H   0  0  0  0  0  0  0  0  0  0  0  0
  102.9742   35.0908  -65.4917 H   0  0  0  0  0  0  0  0  0  0  0  0
  1  2  1  0  0  0  0
  1 81  1  0  0  0  0
  2  3  2  3  0  0  0
  3  4  1  0  0  0  0
  3 82  1  0  0  0  0
  4  5  1  0  0  0  0
  4 83  1  0  0  0  0
  4 84  1  0  0  0  0
  5  6  1  0  0  0  0
  5 85  1  0  0  0  0
  6  7  1  0  0  0  0
  6 86  1  0  0  0  0
  7  8  1  0  0  0  0
  7 87  1  0  0  0  0
  8  9  1  0  0  0  0
  8 88  1  0  0  0  0
  9 10  1  0  0  0  0
  9 89  1  0  0  0  0
 10 11  1  0  0  0  0
 10 90  1  0  0  0  0
 11 12  1  0  0  0  0
 11 91  1  0  0  0  0
 12 13  1  0  0  0  0
 12 92  1  0  0  0  0
 13 14  1  0  0  0  0
 13 93  1  0  0  0  0
 14 15  1  0  0  0  0
 14 94  1  0  0  0  0
 15 16  1  0  0  0  0
 15 95  1  0  0  0  0
 16 17  1  0  0  0  0
 16 96  1  0  0  0  0
 17 18  1  0  0  0  0
 18 19  1  0  0  0  0
 19 20  1  0  0  0  0
 20 21  1  0  0  0  0
 21 22  1  0  0  0  0
 22 23  1  0  0  0  0
 23 24  1  0  0  0  0
 24 25  1  0  0  0  0
 25 26  1  0  0  0  0
 26 27  1  0  0  0  0
 27 28  1  0  0  0  0
 28 29  1  0  0  0  0
 29 30  1  0  0  0  0
 30 31  1  0  0  0  0
 31 32  1  0  0  0  0
 32 33  1  0  0  0  0
 33 34  1  0  0  0  0
 34 35  1  0  0  0  0
 35 36  1  0  0  0  0
 36 37  1  0  0  0  0
 37 38  1  0  0  0  0
 38 39  1  0  0  0  0
 39 40  1  0  0  0  0
 40 41  1  0  0  0  0
 41 42  1  0  0  0  0
 42 43  1  0  0  0  0
 43 44  1  0  0  0  0
 44 45  1  0  0  0  0
 45 46  1  0  0  0  0
 46 47  1  0  0  0  0
 47 48  1  0  0  0  0
 48 49  1  0  0  0  0
 49 50  1  0  0  0  0
 50 51  1  0  0  0  0
 51 52  1  0  0  0  0
 52 53  1  0  0  0  0
 53 54  1  0  0  0  0
 54 55  1  0  0  0  0
 55 56  1  0  0  0  0
 56 57  1  0  0  0  0
 57 58  1  0  0  0  0
 58 59  1  0  0  0  0
 59 60  1  0  0  0  0
 60 61  1  0  0  0  0
 61 62  1  0  0  0  0
 62 63  1  0  0  0  0
 63 64  1  0  0  0  0
 64 65  1  0  0  0  0
 65 66  1  0  0  0  0
 66 67  1  0  0  0  0
 67 68  1  0  0  0  0
 68 69  1  0  0  0  0
 69 70  1  0  0  0  0
 70 71  1  0  0  0  0
 71 72  1  0  0  0  0
 72 73  1  0  0  0  0
 73 74  1  0  0  0  0
 74 75  1  0  0  0  0
 75 76  1  0  0  0  0
 76 77  1  0  0  0  0
 77 78  1  0  0  0  0
 78 79  1  0  0  0  0
 79 80  1  0  0  0  0
 80 97  1  0  0  0  0
M  END
$$$$
