
 OpenBabel04232216473D

 53 53  0  0  0  0  0  0  0  0999 V2000
    3.8652    1.9764   -1.7450 C   0  0  0  0  0  0  0  0  0  0  0  0
    4.8308    2.2334   -0.5836 C   0  0  0  0  0  0  0  0  0  0  0  0
    4.2578    1.6244    0.4927 C   0  0  0  0  0  0  0  0  0  0  0  0
    4.8374    1.2941    1.7483 C   0  0  0  0  0  0  0  0  0  0  0  0
    5.4515    2.2566    2.4496 C   0  0  0  0  0  0  0  0  0  0  0  0
    4.9331    3.6211    2.4052 C   0  0  0  0  0  0  0  0  0  0  0  0
    3.6281    3.9130    2.5270 C   0  0  0  0  0  0  0  0  0  0  0  0
    6.8972    1.8699    2.5471 C   0  0  0  0  0  0  0  0  0  0  0  0
    8.0034    2.8820    2.5341 C   0  0  0  0  0  0  0  0  0  0  0  0
    9.1590    2.2331    1.7626 C   0  0  0  0  0  0  0  0  0  0  0  0
   10.0509    3.2100    1.1149 C   0  0  0  0  0  0  0  0  0  0  0  0
   11.2399    3.3073    1.4781 O   0  0  0  0  0  0  0  0  0  0  0  0
    9.5156    4.2141    0.1494 C   0  0  0  0  0  0  0  0  0  0  0  0
    8.3410    4.6826   -0.3441 C   0  0  0  0  0  0  0  0  0  0  0  0
    8.4571    6.3007   -0.1270 C   0  0  0  0  0  0  0  0  0  0  0  0
    9.3389    7.3202   -0.9446 C   0  0  0  0  0  0  0  0  0  0  0  0
   10.6055    7.2673   -1.4592 C   0  0  0  0  0  0  0  0  0  0  0  0
   11.7107    6.3033   -1.3311 C   0  0  0  0  0  0  0  0  0  0  0  0
    8.8696    8.7981   -0.8124 C   0  0  0  0  0  0  0  0  0  0  0  0
    8.1786    9.3713   -2.0477 C   0  0  0  0  0  0  0  0  0  0  0  0
    8.0893   10.8964   -2.0359 C   0  0  0  0  0  0  0  0  0  0  0  0
    6.8817    4.0289   -0.3586 C   0  0  0  0  0  0  0  0  0  0  0  0
    6.2980    2.8251   -0.7488 C   0  0  0  0  0  0  0  0  0  0  0  0
    2.9354    2.5532   -1.6056 H   0  0  0  0  0  0  0  0  0  0  0  0
    3.5269    0.9191   -1.7043 H   0  0  0  0  0  0  0  0  0  0  0  0
    4.2491    2.1146   -2.7464 H   0  0  0  0  0  0  0  0  0  0  0  0
    3.2512    1.2058    0.4337 H   0  0  0  0  0  0  0  0  0  0  0  0
    5.1718    0.2551    1.7810 H   0  0  0  0  0  0  0  0  0  0  0  0
    5.6050    4.4206    2.1169 H   0  0  0  0  0  0  0  0  0  0  0  0
    2.8893    3.1501    2.7665 H   0  0  0  0  0  0  0  0  0  0  0  0
    3.2491    4.9057    2.3082 H   0  0  0  0  0  0  0  0  0  0  0  0
    7.0641    1.2922    1.5945 H   0  0  0  0  0  0  0  0  0  0  0  0
    7.0641    1.1077    3.3102 H   0  0  0  0  0  0  0  0  0  0  0  0
    8.2889    3.1226    3.5632 H   0  0  0  0  0  0  0  0  0  0  0  0
    7.6962    3.8319    2.0948 H   0  0  0  0  0  0  0  0  0  0  0  0
    8.8460    1.5879    0.9336 H   0  0  0  0  0  0  0  0  0  0  0  0
    9.7271    1.5934    2.4502 H   0  0  0  0  0  0  0  0  0  0  0  0
   10.3550    4.9069    0.0976 H   0  0  0  0  0  0  0  0  0  0  0  0
    8.8809    6.4130    0.8934 H   0  0  0  0  0  0  0  0  0  0  0  0
    7.4522    6.7009   -0.0029 H   0  0  0  0  0  0  0  0  0  0  0  0
   10.9633    8.1970   -1.9427 H   0  0  0  0  0  0  0  0  0  0  0  0
   11.4544    5.3218   -1.7149 H   0  0  0  0  0  0  0  0  0  0  0  0
   12.0364    6.2623   -0.2861 H   0  0  0  0  0  0  0  0  0  0  0  0
   12.5775    6.6608   -1.9034 H   0  0  0  0  0  0  0  0  0  0  0  0
    9.7431    9.4298   -0.5802 H   0  0  0  0  0  0  0  0  0  0  0  0
    8.2396    8.9227    0.0876 H   0  0  0  0  0  0  0  0  0  0  0  0
    7.1719    8.9482   -2.1197 H   0  0  0  0  0  0  0  0  0  0  0  0
    8.7298    9.0740   -2.9468 H   0  0  0  0  0  0  0  0  0  0  0  0
    7.4983   11.2624   -1.1911 H   0  0  0  0  0  0  0  0  0  0  0  0
    7.6075   11.2437   -2.9572 H   0  0  0  0  0  0  0  0  0  0  0  0
    9.0818   11.3588   -1.9875 H   0  0  0  0  0  0  0  0  0  0  0  0
    6.1804    4.7571    0.0430 H   0  0  0  0  0  0  0  0  0  0  0  0
    6.9273    2.0886   -1.2504 H   0  0  0  0  0  0  0  0  0  0  0  0
  1  2  1  0  0  0  0
  1 24  1  0  0  0  0
  1 25  1  0  0  0  0
  1 26  1  0  0  0  0
  2  3  2  3  0  0  0
  2 23  1  0  0  0  0
  3  4  1  0  0  0  0
  3 27  1  0  0  0  0
  4  5  2  3  0  0  0
  4 28  1  0  0  0  0
  5  6  1  0  0  0  0
  5  8  1  0  0  0  0
  6  7  2  0  0  0  0
  6 29  1  0  0  0  0
  7 30  1  0  0  0  0
  7 31  1  0  0  0  0
  8  9  1  0  0  0  0
  8 32  1  0  0  0  0
  8 33  1  0  0  0  0
  9 10  1  0  0  0  0
  9 34  1  0  0  0  0
  9 35  1  0  0  0  0
 10 11  1  0  0  0  0
 10 36  1  0  0  0  0
 10 37  1  0  0  0  0
 11 12  2  0  0  0  0
 11 13  1  0  0  0  0
 13 14  2  3  0  0  0
 13 38  1  0  0  0  0
 14 15  1  0  0  0  0
 14 22  1  0  0  0  0
 15 16  1  0  0  0  0
 15 39  1  0  0  0  0
 15 40  1  0  0  0  0
 16 17  2  3  0  0  0
 16 19  1  0  0  0  0
 17 18  1  0  0  0  0
 17 41  1  0  0  0  0
 18 42  1  0  0  0  0
 18 43  1  0  0  0  0
 18 44  1  0  0  0  0
 19 20  1  0  0  0  0
 19 45  1  0  0  0  0
 19 46  1  0  0  0  0
 20 21  1  0  0  0  0
 20 47  1  0  0  0  0
 20 48  1  0  0  0  0
 21 49  1  0  0  0  0
 21 50  1  0  0  0  0
 21 51  1  0  0  0  0
 22 23  2  3  0  0  0
 22 52  1  0  0  0  0
 23 53  1  0  0  0  0
M  END
$$$$
