
 OpenBabel04232217003D

184183  0  0  0  0  0  0  0  0999 V2000
    0.9913   -0.0571   -0.1628 O   0  0  0  0  0  0  0  0  0  0  0  0
    2.4102   -0.0820   -0.1494 C   0  0  0  0  0  0  0  0  0  0  0  0
    2.9244    1.3450   -0.1319 C   0  0  0  0  0  0  0  0  0  0  0  0
    4.4463    1.3685   -0.1155 C   0  0  0  0  0  0  0  0  0  0  0  0
    4.9627    2.7988   -0.0978 C   0  0  0  0  0  0  0  0  0  0  0  0
    6.4832    2.8081   -0.0815 C   0  0  0  0  0  0  0  0  0  0  0  0
    6.9984    4.2369   -0.0621 C   0  0  0  0  0  0  0  0  0  0  0  0
    8.5167    4.2432   -0.0476 C   0  0  0  0  0  0  0  0  0  0  0  0
    9.0289    5.6718   -0.0280 C   0  0  0  0  0  0  0  0  0  0  0  0
   10.5461    5.6772   -0.0119 C   0  0  0  0  0  0  0  0  0  0  0  0
   11.0568    7.1056    0.0096 C   0  0  0  0  0  0  0  0  0  0  0  0
   12.5735    7.1104    0.0239 C   0  0  0  0  0  0  0  0  0  0  0  0
   13.0836    8.5385    0.0473 C   0  0  0  0  0  0  0  0  0  0  0  0
   14.5999    8.5428    0.0598 C   0  0  0  0  0  0  0  0  0  0  0  0
   15.1090    9.9704    0.0835 C   0  0  0  0  0  0  0  0  0  0  0  0
   16.6225    9.9722    0.0975 C   0  0  0  0  0  0  0  0  0  0  0  0
   17.1331   11.4011    0.1229 C   0  0  0  0  0  0  0  0  0  0  0  0
   18.6470   11.4021    0.1351 C   0  0  0  0  0  0  0  0  0  0  0  0
   19.1535   12.8267    0.1588 C   0  0  0  0  0  0  0  0  0  0  0  0
   20.6652   12.8275    0.1689 C   0  0  0  0  0  0  0  0  0  0  0  0
   21.1646   14.2489    0.1941 C   0  0  0  0  0  0  0  0  0  0  0  0
   22.6674   14.2451    0.2023 C   0  0  0  0  0  0  0  0  0  0  0  0
   23.1441   15.6694    0.2296 C   0  0  0  0  0  0  0  0  0  0  0  0
   24.6369   15.6522    0.2356 C   0  0  0  0  0  0  0  0  0  0  0  0
   25.1088   17.0588    0.2623 C   0  0  0  0  0  0  0  0  0  0  0  0
   26.5002   16.9286    0.2624 O   0  0  0  0  0  0  0  0  0  0  0  0
   26.9208   18.2687    0.2865 O   0  0  0  0  0  0  0  0  0  0  0  0
   28.3203   18.2766    0.3158 O   0  0  0  0  0  0  0  0  0  0  0  0
   28.7411   19.6134    0.3253 O   0  0  0  0  0  0  0  0  0  0  0  0
   30.1370   19.5861    0.2875 O   0  0  0  0  0  0  0  0  0  0  0  0
   30.5965   20.8985    0.3471 O   0  0  0  0  0  0  0  0  0  0  0  0
   31.9938   20.8152    0.3617 O   0  0  0  0  0  0  0  0  0  0  0  0
   32.3715   22.1381    0.3828 C   0  0  0  0  0  0  0  0  0  0  0  0
   33.7432   22.0415    0.3978 O   0  0  0  0  0  0  0  0  0  0  0  0
   34.1201   23.3808    0.3687 O   0  0  0  0  0  0  0  0  0  0  0  0
   35.5038   23.3789    0.3481 O   0  0  0  0  0  0  0  0  0  0  0  0
   35.9121   24.6954    0.4634 O   0  0  0  0  0  0  0  0  0  0  0  0
   37.2957   24.6563    0.4866 O   0  0  0  0  0  0  0  0  0  0  0  0
   37.7264   25.9674    0.4191 O   0  0  0  0  0  0  0  0  0  0  0  0
   39.1089   25.9175    0.3973 O   0  0  0  0  0  0  0  0  0  0  0  0
   39.5390   27.2254    0.5239 O   0  0  0  0  0  0  0  0  0  0  0  0
   40.9214   27.1861    0.5256 O   0  0  0  0  0  0  0  0  0  0  0  0
   41.3408   28.5048    0.4729 O   0  0  0  0  0  0  0  0  0  0  0  0
   42.7246   28.4753    0.4639 O   0  0  0  0  0  0  0  0  0  0  0  0
   43.1481   29.7925    0.5691 O   0  0  0  0  0  0  0  0  0  0  0  0
   44.5338   29.7547    0.5689 O   0  0  0  0  0  0  0  0  0  0  0  0
   44.9808   31.0687    0.4852 O   0  0  0  0  0  0  0  0  0  0  0  0
   46.3831   31.0052    0.5278 O   0  0  0  0  0  0  0  0  0  0  0  0
   46.7161   32.3355    0.6894 C   0  0  0  0  0  0  0  0  0  0  0  0
   48.0930   32.2654    0.9785 O   0  0  0  0  0  0  0  0  0  0  0  0
   48.5992   33.5950    0.8258 O   0  0  0  0  0  0  0  0  0  0  0  0
   50.0370   33.5143    0.7337 N   0  0  0  0  0  0  0  0  0  0  0  0
   50.4561   32.9414   -0.5303 N   0  0  0  0  0  0  0  0  0  0  0  0
   49.9317   33.6398   -1.6527 N   0  0  0  0  0  0  0  0  0  0  0  0
   50.4472   34.9591   -1.6995 N   0  0  0  0  0  0  0  0  0  0  0  0
   51.8834   34.9024   -1.6740 N   0  0  0  0  0  0  0  0  0  0  0  0
   52.3544   34.2285   -2.8470 N   0  0  0  0  0  0  0  0  0  0  0  0
   51.8635   34.9082   -3.9965 N   0  0  0  0  0  0  0  0  0  0  0  0
   52.3224   36.2600   -4.0158 N   0  0  0  0  0  0  0  0  0  0  0  0
   53.7591   36.2981   -3.9805 N   0  0  0  0  0  0  0  0  0  0  0  0
   54.2540   35.6199   -5.1748 C   0  0  0  0  0  0  0  0  0  0  0  0
   55.7663   35.5779   -5.1240 C   0  0  0  0  0  0  0  0  0  0  0  0
   56.2753   34.8670   -6.3662 C   0  0  0  0  0  0  0  0  0  0  0  0
   57.7888   34.8424   -6.3621 C   0  0  0  0  0  0  0  0  0  0  0  0
   58.2982   34.1505   -7.6125 C   0  0  0  0  0  0  0  0  0  0  0  0
   59.8162   34.1359   -7.6069 C   0  0  0  0  0  0  0  0  0  0  0  0
   60.3310   33.4446   -8.8669 C   0  0  0  0  0  0  0  0  0  0  0  0
   61.8460   33.4377   -8.8484 C   0  0  0  0  0  0  0  0  0  0  0  0
   62.3577   32.7385  -10.1029 C   0  0  0  0  0  0  0  0  0  0  0  0
   63.8807   32.7398  -10.0942 C   0  0  0  0  0  0  0  0  0  0  0  0
   64.4004   32.0473  -11.3493 C   0  0  0  0  0  0  0  0  0  0  0  0
   65.9127   32.0397  -11.3402 C   0  0  0  0  0  0  0  0  0  0  0  0
   66.4291   31.3510  -12.5899 C   0  0  0  0  0  0  0  0  0  0  0  0
   67.9474   31.3401  -12.5861 C   0  0  0  0  0  0  0  0  0  0  0  0
   68.4667   30.6511  -13.8363 C   0  0  0  0  0  0  0  0  0  0  0  0
   69.9867   30.6378  -13.8331 C   0  0  0  0  0  0  0  0  0  0  0  0
   70.5106   29.9484  -15.0836 C   0  0  0  0  0  0  0  0  0  0  0  0
   72.0343   29.9316  -15.0846 C   0  0  0  0  0  0  0  0  0  0  0  0
   72.5569   29.2396  -16.3395 C   0  0  0  0  0  0  0  0  0  0  0  0
   74.0186   29.2375  -16.3141 N   0  0  0  0  0  0  0  0  0  0  0  0
   74.4982   28.5833  -17.4875 N   0  0  0  0  0  0  0  0  0  0  0  0
    0.6936   -0.9826   -0.1736 H   0  0  0  0  0  0  0  0  0  0  0  0
    2.7612   -0.6099   -1.0419 H   0  0  0  0  0  0  0  0  0  0  0  0
    2.7440   -0.6256    0.7401 H   0  0  0  0  0  0  0  0  0  0  0  0
    2.5265    1.8722    0.7442 H   0  0  0  0  0  0  0  0  0  0  0  0
    2.5451    1.8870   -1.0072 H   0  0  0  0  0  0  0  0  0  0  0  0
    4.8360    0.8468   -0.9984 H   0  0  0  0  0  0  0  0  0  0  0  0
    4.8171    0.8319    0.7666 H   0  0  0  0  0  0  0  0  0  0  0  0
    4.5797    3.3241    0.7856 H   0  0  0  0  0  0  0  0  0  0  0  0
    4.5986    3.3392   -0.9802 H   0  0  0  0  0  0  0  0  0  0  0  0
    6.8700    2.2860   -0.9654 H   0  0  0  0  0  0  0  0  0  0  0  0
    6.8514    2.2689    0.8001 H   0  0  0  0  0  0  0  0  0  0  0  0
    6.6157    4.7604    0.8227 H   0  0  0  0  0  0  0  0  0  0  0  0
    6.6325    4.7785   -0.9431 H   0  0  0  0  0  0  0  0  0  0  0  0
    8.9017    3.7213   -0.9324 H   0  0  0  0  0  0  0  0  0  0  0  0
    8.8848    3.7031    0.8334 H   0  0  0  0  0  0  0  0  0  0  0  0
    8.6444    6.1950    0.8562 H   0  0  0  0  0  0  0  0  0  0  0  0
    8.6631    6.2125   -0.9096 H   0  0  0  0  0  0  0  0  0  0  0  0
   10.9316    5.1559   -0.8968 H   0  0  0  0  0  0  0  0  0  0  0  0
   10.9130    5.1362    0.8690 H   0  0  0  0  0  0  0  0  0  0  0  0
   10.6729    7.6268    0.8953 H   0  0  0  0  0  0  0  0  0  0  0  0
   10.6897    7.6476   -0.8706 H   0  0  0  0  0  0  0  0  0  0  0  0
   12.9578    6.5905   -0.8624 H   0  0  0  0  0  0  0  0  0  0  0  0
   12.9413    6.5677    0.9035 H   0  0  0  0  0  0  0  0  0  0  0  0
   12.7008    9.0582    0.9343 H   0  0  0  0  0  0  0  0  0  0  0  0
   12.7153    9.0821   -0.8316 H   0  0  0  0  0  0  0  0  0  0  0  0
   14.9834    8.0237   -0.8273 H   0  0  0  0  0  0  0  0  0  0  0  0
   14.9687    7.9995    0.9386 H   0  0  0  0  0  0  0  0  0  0  0  0
   14.7259   10.4908    0.9700 H   0  0  0  0  0  0  0  0  0  0  0  0
   14.7423   10.5142   -0.7959 H   0  0  0  0  0  0  0  0  0  0  0  0
   17.0096    9.4559   -0.7896 H   0  0  0  0  0  0  0  0  0  0  0  0
   16.9935    9.4304    0.9763 H   0  0  0  0  0  0  0  0  0  0  0  0
   16.7508   11.9203    1.0109 H   0  0  0  0  0  0  0  0  0  0  0  0
   16.7650   11.9465   -0.7553 H   0  0  0  0  0  0  0  0  0  0  0  0
   19.0318   10.8839   -0.7525 H   0  0  0  0  0  0  0  0  0  0  0  0
   19.0176   10.8596    1.0143 H   0  0  0  0  0  0  0  0  0  0  0  0
   18.7725   13.3488    1.0470 H   0  0  0  0  0  0  0  0  0  0  0  0
   18.7846   13.3739   -0.7194 H   0  0  0  0  0  0  0  0  0  0  0  0
   21.0490   12.3109   -0.7204 H   0  0  0  0  0  0  0  0  0  0  0  0
   21.0374   12.2836    1.0468 H   0  0  0  0  0  0  0  0  0  0  0  0
   20.7837   14.7710    1.0833 H   0  0  0  0  0  0  0  0  0  0  0  0
   20.7935   14.7993   -0.6818 H   0  0  0  0  0  0  0  0  0  0  0  0
   23.0542   13.7353   -0.6884 H   0  0  0  0  0  0  0  0  0  0  0  0
   23.0449   13.7048    1.0788 H   0  0  0  0  0  0  0  0  0  0  0  0
   22.7698   16.1895    1.1220 H   0  0  0  0  0  0  0  0  0  0  0  0
   22.7772   16.2209   -0.6468 H   0  0  0  0  0  0  0  0  0  0  0  0
   25.0416   15.1407   -0.6493 H   0  0  0  0  0  0  0  0  0  0  0  0
   25.0346   15.1093    1.1046 H   0  0  0  0  0  0  0  0  0  0  0  0
   24.7849   17.5892    1.1665 H   0  0  0  0  0  0  0  0  0  0  0  0
   24.7897   17.6218   -0.6235 H   0  0  0  0  0  0  0  0  0  0  0  0
   32.0133   22.6454    1.2869 H   0  0  0  0  0  0  0  0  0  0  0  0
   32.0259   22.6716   -0.5135 H   0  0  0  0  0  0  0  0  0  0  0  0
   46.2061   32.7948    1.5458 H   0  0  0  0  0  0  0  0  0  0  0  0
   46.4861   32.8753   -0.2266 H   0  0  0  0  0  0  0  0  0  0  0  0
   50.2604   32.9278    1.5568 H   0  0  0  0  0  0  0  0  0  0  0  0
   50.2005   31.9585   -0.6175 H   0  0  0  0  0  0  0  0  0  0  0  0
   48.9226   33.6395   -1.7345 H   0  0  0  0  0  0  0  0  0  0  0  0
   50.1407   35.4671   -0.8810 H   0  0  0  0  0  0  0  0  0  0  0  0
   52.1424   34.3211   -0.8839 H   0  0  0  0  0  0  0  0  0  0  0  0
   51.9591   33.2902   -2.8424 H   0  0  0  0  0  0  0  0  0  0  0  0
   50.8457   34.9083   -3.9700 H   0  0  0  0  0  0  0  0  0  0  0  0
   51.9770   36.7204   -3.1737 H   0  0  0  0  0  0  0  0  0  0  0  0
   54.0382   35.7604   -3.1607 H   0  0  0  0  0  0  0  0  0  0  0  0
   53.9105   36.1393   -6.0760 H   0  0  0  0  0  0  0  0  0  0  0  0
   53.9073   34.5799   -5.2381 H   0  0  0  0  0  0  0  0  0  0  0  0
   56.1070   35.0462   -4.2264 H   0  0  0  0  0  0  0  0  0  0  0  0
   56.1712   36.5983   -5.0752 H   0  0  0  0  0  0  0  0  0  0  0  0
   55.9085   35.3779   -7.2650 H   0  0  0  0  0  0  0  0  0  0  0  0
   55.8846   33.8406   -6.3981 H   0  0  0  0  0  0  0  0  0  0  0  0
   58.1509   34.3191   -5.4692 H   0  0  0  0  0  0  0  0  0  0  0  0
   58.1748   35.8685   -6.3182 H   0  0  0  0  0  0  0  0  0  0  0  0
   57.9317   34.6714   -8.5041 H   0  0  0  0  0  0  0  0  0  0  0  0
   57.9142   33.1239   -7.6546 H   0  0  0  0  0  0  0  0  0  0  0  0
   60.1823   33.6144   -6.7170 H   0  0  0  0  0  0  0  0  0  0  0  0
   60.1983   35.1643   -7.5626 H   0  0  0  0  0  0  0  0  0  0  0  0
   59.9623   33.9712   -9.7488 H   0  0  0  0  0  0  0  0  0  0  0  0
   59.9477   32.4215   -8.9021 H   0  0  0  0  0  0  0  0  0  0  0  0
   62.2099   32.9168   -7.9604 H   0  0  0  0  0  0  0  0  0  0  0  0
   62.2198   34.4640   -8.8060 H   0  0  0  0  0  0  0  0  0  0  0  0
   61.9960   33.2711  -10.9940 H   0  0  0  0  0  0  0  0  0  0  0  0
   61.9859   31.7247  -10.1483 H   0  0  0  0  0  0  0  0  0  0  0  0
   64.2467   32.2176   -9.2027 H   0  0  0  0  0  0  0  0  0  0  0  0
   64.2622   33.7666  -10.0513 H   0  0  0  0  0  0  0  0  0  0  0  0
   64.0272   32.5712  -12.2371 H   0  0  0  0  0  0  0  0  0  0  0  0
   64.0140   31.0224  -11.3888 H   0  0  0  0  0  0  0  0  0  0  0  0
   66.2794   31.5190  -10.4469 H   0  0  0  0  0  0  0  0  0  0  0  0
   66.2925   33.0679  -11.2952 H   0  0  0  0  0  0  0  0  0  0  0  0
   66.0609   31.8723  -13.4821 H   0  0  0  0  0  0  0  0  0  0  0  0
   66.0477   30.3234  -12.6339 H   0  0  0  0  0  0  0  0  0  0  0  0
   68.3135   30.8195  -11.6926 H   0  0  0  0  0  0  0  0  0  0  0  0
   68.3269   32.3684  -12.5408 H   0  0  0  0  0  0  0  0  0  0  0  0
   68.0989   31.1732  -14.7282 H   0  0  0  0  0  0  0  0  0  0  0  0
   68.0837   29.6241  -13.8808 H   0  0  0  0  0  0  0  0  0  0  0  0
   70.3506   30.1168  -12.9390 H   0  0  0  0  0  0  0  0  0  0  0  0
   70.3661   31.6660  -13.7865 H   0  0  0  0  0  0  0  0  0  0  0  0
   70.1421   30.4707  -15.9751 H   0  0  0  0  0  0  0  0  0  0  0  0
   70.1260   28.9220  -15.1277 H   0  0  0  0  0  0  0  0  0  0  0  0
   72.3944   29.4122  -14.1874 H   0  0  0  0  0  0  0  0  0  0  0  0
   72.4121   30.9610  -15.0371 H   0  0  0  0  0  0  0  0  0  0  0  0
   72.1893   29.7748  -17.2241 H   0  0  0  0  0  0  0  0  0  0  0  0
   72.1669   28.2143  -16.3774 H   0  0  0  0  0  0  0  0  0  0  0  0
   74.3433   28.7302  -15.4914 H   0  0  0  0  0  0  0  0  0  0  0  0
   74.1552   29.0698  -18.3148 H   0  0  0  0  0  0  0  0  0  0  0  0
   74.1271   27.6351  -17.5311 H   0  0  0  0  0  0  0  0  0  0  0  0
  1  2  1  0  0  0  0
  1 82  1  0  0  0  0
  2  3  1  0  0  0  0
  2 83  1  0  0  0  0
  2 84  1  0  0  0  0
  3  4  1  0  0  0  0
  3 85  1  0  0  0  0
  3 86  1  0  0  0  0
  4  5  1  0  0  0  0
  4 87  1  0  0  0  0
  4 88  1  0  0  0  0
  5  6  1  0  0  0  0
  5 89  1  0  0  0  0
  5 90  1  0  0  0  0
  6  7  1  0  0  0  0
  6 91  1  0  0  0  0
  6 92  1  0  0  0  0
  7  8  1  0  0  0  0
  7 93  1  0  0  0  0
  7 94  1  0  0  0  0
  8  9  1  0  0  0  0
  8 95  1  0  0  0  0
  8 96  1  0  0  0  0
  9 10  1  0  0  0  0
  9 97  1  0  0  0  0
  9 98  1  0  0  0  0
 10 11  1  0  0  0  0
 10 99  1  0  0  0  0
 10100  1  0  0  0  0
 11 12  1  0  0  0  0
 11101  1  0  0  0  0
 11102  1  0  0  0  0
 12 13  1  0  0  0  0
 12103  1  0  0  0  0
 12104  1  0  0  0  0
 13 14  1  0  0  0  0
 13105  1  0  0  0  0
 13106  1  0  0  0  0
 14 15  1  0  0  0  0
 14107  1  0  0  0  0
 14108  1  0  0  0  0
 15 16  1  0  0  0  0
 15109  1  0  0  0  0
 15110  1  0  0  0  0
 16 17  1  0  0  0  0
 16111  1  0  0  0  0
 16112  1  0  0  0  0
 17 18  1  0  0  0  0
 17113  1  0  0  0  0
 17114  1  0  0  0  0
 18 19  1  0  0  0  0
 18115  1  0  0  0  0
 18116  1  0  0  0  0
 19 20  1  0  0  0  0
 19117  1  0  0  0  0
 19118  1  0  0  0  0
 20 21  1  0  0  0  0
 20119  1  0  0  0  0
 20120  1  0  0  0  0
 21 22  1  0  0  0  0
 21121  1  0  0  0  0
 21122  1  0  0  0  0
 22 23  1  0  0  0  0
 22123  1  0  0  0  0
 22124  1  0  0  0  0
 23 24  1  0  0  0  0
 23125  1  0  0  0  0
 23126  1  0  0  0  0
 24 25  1  0  0  0  0
 24127  1  0  0  0  0
 24128  1  0  0  0  0
 25 26  1  0  0  0  0
 25129  1  0  0  0  0
 25130  1  0  0  0  0
 26 27  1  0  0  0  0
 27 28  1  0  0  0  0
 28 29  1  0  0  0  0
 29 30  1  0  0  0  0
 30 31  1  0  0  0  0
 31 32  1  0  0  0  0
 32 33  1  0  0  0  0
 33 34  1  0  0  0  0
 33131  1  0  0  0  0
 33132  1  0  0  0  0
 34 35  1  0  0  0  0
 35 36  1  0  0  0  0
 36 37  1  0  0  0  0
 37 38  1  0  0  0  0
 38 39  1  0  0  0  0
 39 40  1  0  0  0  0
 40 41  1  0  0  0  0
 41 42  1  0  0  0  0
 42 43  1  0  0  0  0
 43 44  1  0  0  0  0
 44 45  1  0  0  0  0
 45 46  1  0  0  0  0
 46 47  1  0  0  0  0
 47 48  1  0  0  0  0
 48 49  1  0  0  0  0
 49 50  1  0  0  0  0
 49133  1  0  0  0  0
 49134  1  0  0  0  0
 50 51  1  0  0  0  0
 51 52  1  0  0  0  0
 52 53  1  0  0  0  0
 52135  1  0  0  0  0
 53 54  1  0  0  0  0
 53136  1  0  0  0  0
 54 55  1  0  0  0  0
 54137  1  0  0  0  0
 55 56  1  0  0  0  0
 55138  1  0  0  0  0
 56 57  1  0  0  0  0
 56139  1  0  0  0  0
 57 58  1  0  0  0  0
 57140  1  0  0  0  0
 58 59  1  0  0  0  0
 58141  1  0  0  0  0
 59 60  1  0  0  0  0
 59142  1  0  0  0  0
 60 61  1  0  0  0  0
 60143  1  0  0  0  0
 61 62  1  0  0  0  0
 61144  1  0  0  0  0
 61145  1  0  0  0  0
 62 63  1  0  0  0  0
 62146  1  0  0  0  0
 62147  1  0  0  0  0
 63 64  1  0  0  0  0
 63148  1  0  0  0  0
 63149  1  0  0  0  0
 64 65  1  0  0  0  0
 64150  1  0  0  0  0
 64151  1  0  0  0  0
 65 66  1  0  0  0  0
 65152  1  0  0  0  0
 65153  1  0  0  0  0
 66 67  1  0  0  0  0
 66154  1  0  0  0  0
 66155  1  0  0  0  0
 67 68  1  0  0  0  0
 67156  1  0  0  0  0
 67157  1  0  0  0  0
 68 69  1  0  0  0  0
 68158  1  0  0  0  0
 68159  1  0  0  0  0
 69 70  1  0  0  0  0
 69160  1  0  0  0  0
 69161  1  0  0  0  0
 70 71  1  0  0  0  0
 70162  1  0  0  0  0
 70163  1  0  0  0  0
 71 72  1  0  0  0  0
 71164  1  0  0  0  0
 71165  1  0  0  0  0
 72 73  1  0  0  0  0
 72166  1  0  0  0  0
 72167  1  0  0  0  0
 73 74  1  0  0  0  0
 73168  1  0  0  0  0
 73169  1  0  0  0  0
 74 75  1  0  0  0  0
 74170  1  0  0  0  0
 74171  1  0  0  0  0
 75 76  1  0  0  0  0
 75172  1  0  0  0  0
 75173  1  0  0  0  0
 76 77  1  0  0  0  0
 76174  1  0  0  0  0
 76175  1  0  0  0  0
 77 78  1  0  0  0  0
 77176  1  0  0  0  0
 77177  1  0  0  0  0
 78 79  1  0  0  0  0
 78178  1  0  0  0  0
 78179  1  0  0  0  0
 79 80  1  0  0  0  0
 79180  1  0  0  0  0
 79181  1  0  0  0  0
 80 81  1  0  0  0  0
 80182  1  0  0  0  0
 81183  1  0  0  0  0
 81184  1  0  0  0  0
M  END
$$$$
