
 OpenBabel04232216423D

 38 41  0  0  0  0  0  0  0  0999 V2000
   -1.2287   -6.8817    0.0222 C   0  0  0  0  0  0  0  0  0  0  0  0
   -1.4441   -6.1139    1.1683 C   0  0  0  0  0  0  0  0  0  0  0  0
   -2.4228   -5.1174    1.1790 C   0  0  0  0  0  0  0  0  0  0  0  0
   -3.1988   -4.9118    0.0335 C   0  0  0  0  0  0  0  0  0  0  0  0
   -4.3319   -3.9302    0.0444 C   0  0  0  0  0  0  0  0  0  0  0  0
   -3.9416   -2.5294    0.1858 N   0  0  0  0  0  0  0  0  0  0  0  0
   -4.8070   -1.6513   -0.3850 C   0  0  0  0  0  0  0  0  0  0  0  0
   -6.1466   -1.7759   -0.9800 C   0  0  0  0  0  0  0  0  0  0  0  0
   -7.2251   -1.1266   -0.1650 C   0  0  0  0  0  0  0  0  0  0  0  0
   -7.8854   -2.0431    0.6113 N   0  0  0  0  0  0  0  0  0  0  0  0
   -9.1334   -2.3060    0.4259 C   0  0  0  0  0  0  0  0  0  0  0  0
   -9.6882   -3.5273    1.0677 C   0  0  0  0  0  0  0  0  0  0  0  0
  -10.9797   -3.5754    0.7367 C   0  0  0  0  0  0  0  0  0  0  0  0
  -11.3283   -2.4495   -0.0756 C   0  0  0  0  0  0  0  0  0  0  0  0
  -10.2588   -1.6949   -0.3541 C   0  0  0  0  0  0  0  0  0  0  0  0
  -10.2602   -0.4950   -0.9880 N   0  0  0  0  0  0  0  0  0  0  0  0
   -9.5499   -0.4151   -2.0120 N   0  0  0  0  0  0  0  0  0  0  0  0
   -9.4329    0.9134   -2.3586 C   0  0  0  0  0  0  0  0  0  0  0  0
   -8.3087    1.5532   -2.4757 N   0  0  0  0  0  0  0  0  0  0  0  0
   -7.1868    0.7672   -2.2408 N   0  0  0  0  0  0  0  0  0  0  0  0
   -6.7500    0.8917   -1.0685 N   0  0  0  0  0  0  0  0  0  0  0  0
   -7.5048    0.1379   -0.1427 N   0  0  0  0  0  0  0  0  0  0  0  0
   -3.6643   -1.8327   -0.9496 N   0  0  0  0  0  0  0  0  0  0  0  0
   -2.9667   -5.6807   -1.1248 C   0  0  0  0  0  0  0  0  0  0  0  0
   -1.9925   -6.6659   -1.1211 C   0  0  0  0  0  0  0  0  0  0  0  0
   -0.4638   -7.6514    0.0243 H   0  0  0  0  0  0  0  0  0  0  0  0
   -0.8417   -6.2855    2.0545 H   0  0  0  0  0  0  0  0  0  0  0  0
   -2.5872   -4.5331    2.0761 H   0  0  0  0  0  0  0  0  0  0  0  0
   -5.0213   -4.1831    0.8573 H   0  0  0  0  0  0  0  0  0  0  0  0
   -4.8786   -4.0902   -0.8904 H   0  0  0  0  0  0  0  0  0  0  0  0
   -6.4039   -2.8381   -1.0184 H   0  0  0  0  0  0  0  0  0  0  0  0
   -6.1315   -1.4460   -2.0170 H   0  0  0  0  0  0  0  0  0  0  0  0
   -9.1040   -4.2369    1.6284 H   0  0  0  0  0  0  0  0  0  0  0  0
  -11.6707   -4.3558    1.0227 H   0  0  0  0  0  0  0  0  0  0  0  0
  -12.3413   -2.2322   -0.3798 H   0  0  0  0  0  0  0  0  0  0  0  0
  -10.3625    1.4819   -2.5251 H   0  0  0  0  0  0  0  0  0  0  0  0
   -3.5669   -5.5231   -2.0138 H   0  0  0  0  0  0  0  0  0  0  0  0
   -1.8332   -7.2660   -2.0132 H   0  0  0  0  0  0  0  0  0  0  0  0
  1  2  1  0  0  0  0
  1 25  2  0  0  0  0
  1 26  1  0  0  0  0
  2  3  2  0  0  0  0
  2 27  1  0  0  0  0
  3  4  1  0  0  0  0
  3 28  1  0  0  0  0
  4  5  1  0  0  0  0
  4 24  2  0  0  0  0
  5  6  1  0  0  0  0
  5 29  1  0  0  0  0
  5 30  1  0  0  0  0
  6  7  1  0  0  0  0
  6 23  1  0  0  0  0
  7  8  1  0  0  0  0
  7 23  2  0  0  0  0
  8  9  1  0  0  0  0
  8 31  1  0  0  0  0
  8 32  1  0  0  0  0
  9 10  1  0  0  0  0
  9 22  2  0  0  0  0
 10 11  2  0  0  0  0
 11 12  1  0  0  0  0
 11 15  1  0  0  0  0
 12 13  2  0  0  0  0
 12 33  1  0  0  0  0
 13 14  1  0  0  0  0
 13 34  1  0  0  0  0
 14 15  2  0  0  0  0
 14 35  1  0  0  0  0
 15 16  1  0  0  0  0
 16 17  2  0  0  0  0
 17 18  1  0  0  0  0
 18 19  2  0  0  0  0
 18 36  1  0  0  0  0
 19 20  1  0  0  0  0
 20 21  2  0  0  0  0
 21 22  1  0  0  0  0
 24 25  1  0  0  0  0
 24 37  1  0  0  0  0
 25 38  1  0  0  0  0
M  END
$$$$
