
 OpenBabel04232216393D

 64 65  0  0  0  0  0  0  0  0999 V2000
    4.8095   -0.7848   -0.6415 C   0  0  0  0  0  0  0  0  0  0  0  0
    4.4977    0.6164   -1.1976 C   0  0  0  0  0  0  0  0  0  0  0  0
    3.9884    1.7740   -0.6190 C   0  0  0  0  0  0  0  0  0  0  0  0
    3.0465    1.2914    0.5199 C   0  0  0  0  0  0  0  0  0  0  0  0
    3.9356    3.2631   -1.2757 N   0  0  0  0  0  0  0  0  0  0  0  0
    5.0221    4.1893   -1.2001 C   0  0  0  0  0  0  0  0  0  0  0  0
    5.2043    6.0839   -1.9910 C   0  0  0  0  0  0  0  0  0  0  0  0
    4.9751    7.6666   -3.1945 C   0  0  0  0  0  0  0  0  0  0  0  0
    5.2003    9.4892   -3.9191 C   0  0  0  0  0  0  0  0  0  0  0  0
    6.0867   10.7512   -4.8980 C   0  0  0  0  0  0  0  0  0  0  0  0
    7.6200   10.8635   -5.3840 C   0  0  0  0  0  0  0  0  0  0  0  0
    8.7706    9.9282   -5.0417 C   0  0  0  0  0  0  0  0  0  0  0  0
    8.0476    8.8242   -4.4011 C   0  0  0  0  0  0  0  0  0  0  0  0
    8.9504    7.8842   -3.7168 C   0  0  0  0  0  0  0  0  0  0  0  0
    7.9283    7.1127   -2.9505 C   0  0  0  0  0  0  0  0  0  0  0  0
    8.5899    6.1655   -2.0563 C   0  0  0  0  0  3  0  0  0  0  0  0
    8.2900    4.9270   -2.6207 C   0  0  0  0  0  0  0  0  0  0  0  0
    9.1278    3.8971   -2.8353 C   0  0  0  0  0  0  0  0  0  0  0  0
    8.5068    2.7207   -3.4678 C   0  0  0  0  0  0  0  0  0  0  0  0
    8.4372    1.5621   -2.7745 C   0  0  0  0  0  0  0  0  0  0  0  0
    7.1880    1.6696   -2.0398 C   0  0  0  0  0  0  0  0  0  0  0  0
    7.2643    2.6392   -1.0987 C   0  0  0  0  0  0  0  0  0  0  0  0
    6.2653    3.1974   -0.2635 C   0  0  0  0  0  0  0  0  0  0  0  0
    6.3068    2.3058    0.8665 C   0  0  0  0  0  0  0  0  0  0  0  0
    7.3090    0.9890    1.0375 C   0  0  0  0  0  0  0  0  0  0  0  0
    7.4052   -0.1076    1.8478 C   0  0  0  0  0  0  0  0  0  0  0  0
    7.8610   -1.4320    1.2722 C   0  0  0  0  0  0  0  0  0  0  0  0
    7.0965   -2.0342    0.3206 C   0  0  0  0  0  0  0  0  0  0  0  0
    5.9447   -1.3510   -0.2303 C   0  0  0  0  0  3  0  0  0  0  0  0
    4.0257   -1.5167   -0.9141 H   0  0  0  0  0  0  0  0  0  0  0  0
    3.9253    0.4048   -2.0980 H   0  0  0  0  0  0  0  0  0  0  0  0
    2.0114    1.6261    0.4675 H   0  0  0  0  0  0  0  0  0  0  0  0
    3.4548    1.3729    1.5332 H   0  0  0  0  0  0  0  0  0  0  0  0
    2.9021    0.1863    0.4463 H   0  0  0  0  0  0  0  0  0  0  0  0
    4.5689    6.5188   -1.2583 H   0  0  0  0  0  0  0  0  0  0  0  0
    4.6284    5.6036   -2.8491 H   0  0  0  0  0  0  0  0  0  0  0  0
    4.3516    8.1816   -2.4376 H   0  0  0  0  0  0  0  0  0  0  0  0
    4.2899    7.3304   -3.9870 H   0  0  0  0  0  0  0  0  0  0  0  0
    4.5156    9.3521   -4.7786 H   0  0  0  0  0  0  0  0  0  0  0  0
    4.6401   10.1648   -3.2720 H   0  0  0  0  0  0  0  0  0  0  0  0
    5.9343   11.7463   -4.4000 H   0  0  0  0  0  0  0  0  0  0  0  0
    5.5211   11.0262   -5.8256 H   0  0  0  0  0  0  0  0  0  0  0  0
    7.3464   10.2640   -6.2473 H   0  0  0  0  0  0  0  0  0  0  0  0
    7.7823   11.3490   -4.4299 H   0  0  0  0  0  0  0  0  0  0  0  0
    9.4811   10.4010   -4.3467 H   0  0  0  0  0  0  0  0  0  0  0  0
    9.3626    9.6143   -5.9083 H   0  0  0  0  0  0  0  0  0  0  0  0
    7.3719    8.3225   -5.1130 H   0  0  0  0  0  0  0  0  0  0  0  0
    7.4447    9.2764   -3.6056 H   0  0  0  0  0  0  0  0  0  0  0  0
    9.6273    8.4132   -3.0475 H   0  0  0  0  0  0  0  0  0  0  0  0
    9.5130    7.3012   -4.4535 H   0  0  0  0  0  0  0  0  0  0  0  0
    7.2736    6.6403   -3.7128 H   0  0  0  0  0  0  0  0  0  0  0  0
    7.2845    7.7405   -2.3331 H   0  0  0  0  0  0  0  0  0  0  0  0
    9.4712    6.4446   -1.5008 H   0  0  0  0  0  0  0  0  0  0  0  0
    7.2613    4.8165   -2.9869 H   0  0  0  0  0  0  0  0  0  0  0  0
   10.0371    3.8171   -2.2449 H   0  0  0  0  0  0  0  0  0  0  0  0
    7.5157    3.0025   -3.8844 H   0  0  0  0  0  0  0  0  0  0  0  0
    9.2647    1.2401   -2.1389 H   0  0  0  0  0  0  0  0  0  0  0  0
    6.2886    1.2712   -2.4882 H   0  0  0  0  0  0  0  0  0  0  0  0
    8.2569    2.8631   -0.6844 H   0  0  0  0  0  0  0  0  0  0  0  0
    5.4636    2.1567    1.5278 H   0  0  0  0  0  0  0  0  0  0  0  0
    8.0022    0.8493    0.1907 H   0  0  0  0  0  0  0  0  0  0  0  0
    6.8665   -0.2676    2.7880 H   0  0  0  0  0  0  0  0  0  0  0  0
    8.7272   -1.9756    1.7415 H   0  0  0  0  0  0  0  0  0  0  0  0
    7.3039   -3.0793    0.0285 H   0  0  0  0  0  0  0  0  0  0  0  0
  1  2  1  0  0  0  0
  1 29  2  3  0  0  0
  1 30  1  0  0  0  0
  2  3  2  3  0  0  0
  2 31  1  0  0  0  0
  3  4  1  0  0  0  0
  3  5  1  0  0  0  0
  4 32  1  0  0  0  0
  4 33  1  0  0  0  0
  4 34  1  0  0  0  0
  5  6  2  3  0  0  0
  6  7  1  0  0  0  0
  6 23  1  0  0  0  0
  7  8  1  0  0  0  0
  7 35  1  0  0  0  0
  7 36  1  0  0  0  0
  8  9  1  0  0  0  0
  8 37  1  0  0  0  0
  8 38  1  0  0  0  0
  9 10  1  0  0  0  0
  9 39  1  0  0  0  0
  9 40  1  0  0  0  0
 10 11  1  0  0  0  0
 10 41  1  0  0  0  0
 10 42  1  0  0  0  0
 11 12  1  0  0  0  0
 11 43  1  0  0  0  0
 11 44  1  0  0  0  0
 12 13  1  0  0  0  0
 12 45  1  0  0  0  0
 12 46  1  0  0  0  0
 13 14  1  0  0  0  0
 13 47  1  0  0  0  0
 13 48  1  0  0  0  0
 14 15  1  0  0  0  0
 14 49  1  0  0  0  0
 14 50  1  0  0  0  0
 15 16  1  0  0  0  0
 15 51  1  0  0  0  0
 15 52  1  0  0  0  0
 16 17  1  0  0  0  0
 16 53  1  0  0  0  0
 17 18  2  3  0  0  0
 17 54  1  0  0  0  0
 18 19  1  0  0  0  0
 18 55  1  0  0  0  0
 19 20  2  3  0  0  0
 19 56  1  0  0  0  0
 20 21  1  0  0  0  0
 20 57  1  0  0  0  0
 21 22  2  3  0  0  0
 21 58  1  0  0  0  0
 22 23  1  0  0  0  0
 22 59  1  0  0  0  0
 23 24  2  3  0  0  0
 24 25  1  0  0  0  0
 24 60  1  0  0  0  0
 25 26  2  3  0  0  0
 25 61  1  0  0  0  0
 26 27  1  0  0  0  0
 26 62  1  0  0  0  0
 27 28  2  3  0  0  0
 27 63  1  0  0  0  0
 28 29  1  0  0  0  0
 28 64  1  0  0  0  0
M  END
$$$$
