
 OpenBabel04232216583D

 59 58  0  0  0  0  0  0  0  0999 V2000
    4.7011    0.8053   -2.5963 N   0  0  0  0  0  0  0  0  0  0  0  0
    4.2109    0.4564   -1.2866 N   0  0  0  0  0  0  0  0  0  0  0  0
    4.7833   -0.8381   -0.9026 C   0  0  0  0  0  0  0  0  0  0  0  0
    4.3572   -1.2575    0.5211 C   0  0  0  0  0  0  0  0  0  0  0  0
    4.8463   -2.5851    0.9310 N   0  0  0  0  0  0  0  0  0  0  0  0
    6.3062   -2.6198    0.9871 C   0  0  0  0  0  0  0  0  0  0  0  0
    6.8038   -3.9984    1.4074 C   0  0  0  0  0  0  0  0  0  0  0  0
    8.3318   -4.0050    1.4041 C   0  0  0  0  0  0  0  0  0  0  0  0
    8.8863   -5.3640    1.8092 C   0  0  0  0  0  0  0  0  0  0  0  0
   10.4133   -5.3336    1.8132 C   0  0  0  0  0  0  0  0  0  0  0  0
   10.9079   -6.6276    2.2528 N   0  0  0  0  0  0  0  0  0  0  0  0
   12.3654   -6.6608    2.2153 C   0  0  0  0  0  0  0  0  0  0  0  0
   12.8067   -8.0032    2.5964 N   0  0  0  0  0  0  0  0  0  0  0  0
   12.3292   -8.9617    1.5960 N   0  0  0  0  0  0  0  0  0  0  0  0
   12.7440  -10.3029    2.0057 C   0  0  0  0  0  0  0  0  0  0  0  0
   12.2102  -11.3105    0.9910 C   0  0  0  0  0  0  0  0  0  0  0  0
   12.6482  -12.7244    1.3580 C   0  0  0  0  0  0  0  0  0  0  0  0
   12.1228  -13.7412    0.3500 C   0  0  0  0  0  0  0  0  0  0  0  0
   12.5748  -15.1520    0.7221 C   0  0  0  0  0  0  0  0  0  0  0  0
   12.0559  -16.1817   -0.2781 C   0  0  0  0  0  0  0  0  0  0  0  0
   12.5076  -17.5831    0.0959 C   0  0  0  0  0  0  0  0  0  0  0  0
    4.4723    1.7692   -2.8386 H   0  0  0  0  0  0  0  0  0  0  0  0
    4.3095    0.2157   -3.3385 H   0  0  0  0  0  0  0  0  0  0  0  0
    3.1887    0.4162   -1.2341 H   0  0  0  0  0  0  0  0  0  0  0  0
    5.8748   -0.7587   -0.9525 H   0  0  0  0  0  0  0  0  0  0  0  0
    4.4674   -1.6134   -1.6126 H   0  0  0  0  0  0  0  0  0  0  0  0
    3.2620   -1.2856    0.5736 H   0  0  0  0  0  0  0  0  0  0  0  0
    4.6799   -0.5058    1.2525 H   0  0  0  0  0  0  0  0  0  0  0  0
    4.5097   -3.2885    0.2743 H   0  0  0  0  0  0  0  0  0  0  0  0
    6.6717   -1.8671    1.6959 H   0  0  0  0  0  0  0  0  0  0  0  0
    6.7385   -2.4000    0.0058 H   0  0  0  0  0  0  0  0  0  0  0  0
    6.4320   -4.7617    0.7122 H   0  0  0  0  0  0  0  0  0  0  0  0
    6.4278   -4.2509    2.4059 H   0  0  0  0  0  0  0  0  0  0  0  0
    8.7032   -3.2355    2.0925 H   0  0  0  0  0  0  0  0  0  0  0  0
    8.6994   -3.7443    0.4040 H   0  0  0  0  0  0  0  0  0  0  0  0
    8.5259   -6.1304    1.1095 H   0  0  0  0  0  0  0  0  0  0  0  0
    8.5111   -5.6315    2.8051 H   0  0  0  0  0  0  0  0  0  0  0  0
   10.7632   -4.5458    2.4908 H   0  0  0  0  0  0  0  0  0  0  0  0
   10.7756   -5.1007    0.8038 H   0  0  0  0  0  0  0  0  0  0  0  0
   10.5555   -7.3595    1.6300 H   0  0  0  0  0  0  0  0  0  0  0  0
   12.7761   -5.9434    2.9340 H   0  0  0  0  0  0  0  0  0  0  0  0
   12.7550   -6.3995    1.2231 H   0  0  0  0  0  0  0  0  0  0  0  0
   12.3485   -8.1810    3.4956 H   0  0  0  0  0  0  0  0  0  0  0  0
   12.7395   -8.7605    0.6799 H   0  0  0  0  0  0  0  0  0  0  0  0
   12.3444  -10.5412    2.9988 H   0  0  0  0  0  0  0  0  0  0  0  0
   13.8377  -10.3645    2.0526 H   0  0  0  0  0  0  0  0  0  0  0  0
   12.5757  -11.0639   -0.0143 H   0  0  0  0  0  0  0  0  0  0  0  0
   11.1135  -11.2616    0.9572 H   0  0  0  0  0  0  0  0  0  0  0  0
   12.2816  -12.9752    2.3618 H   0  0  0  0  0  0  0  0  0  0  0  0
   13.7437  -12.7715    1.3939 H   0  0  0  0  0  0  0  0  0  0  0  0
   12.4868  -13.4896   -0.6539 H   0  0  0  0  0  0  0  0  0  0  0  0
   11.0284  -13.7006    0.3185 H   0  0  0  0  0  0  0  0  0  0  0  0
   12.2124  -15.4001    1.7274 H   0  0  0  0  0  0  0  0  0  0  0  0
   13.6705  -15.1901    0.7556 H   0  0  0  0  0  0  0  0  0  0  0  0
   12.4188  -15.9402   -1.2840 H   0  0  0  0  0  0  0  0  0  0  0  0
   10.9607  -16.1507   -0.3112 H   0  0  0  0  0  0  0  0  0  0  0  0
   13.6002  -17.6511    0.1089 H   0  0  0  0  0  0  0  0  0  0  0  0
   12.1291  -18.3105   -0.6290 H   0  0  0  0  0  0  0  0  0  0  0  0
   12.1346  -17.8627    1.0865 H   0  0  0  0  0  0  0  0  0  0  0  0
  1  2  1  0  0  0  0
  1 22  1  0  0  0  0
  1 23  1  0  0  0  0
  2  3  1  0  0  0  0
  2 24  1  0  0  0  0
  3  4  1  0  0  0  0
  3 25  1  0  0  0  0
  3 26  1  0  0  0  0
  4  5  1  0  0  0  0
  4 27  1  0  0  0  0
  4 28  1  0  0  0  0
  5  6  1  0  0  0  0
  5 29  1  0  0  0  0
  6  7  1  0  0  0  0
  6 30  1  0  0  0  0
  6 31  1  0  0  0  0
  7  8  1  0  0  0  0
  7 32  1  0  0  0  0
  7 33  1  0  0  0  0
  8  9  1  0  0  0  0
  8 34  1  0  0  0  0
  8 35  1  0  0  0  0
  9 10  1  0  0  0  0
  9 36  1  0  0  0  0
  9 37  1  0  0  0  0
 10 11  1  0  0  0  0
 10 38  1  0  0  0  0
 10 39  1  0  0  0  0
 11 12  1  0  0  0  0
 11 40  1  0  0  0  0
 12 13  1  0  0  0  0
 12 41  1  0  0  0  0
 12 42  1  0  0  0  0
 13 14  1  0  0  0  0
 13 43  1  0  0  0  0
 14 15  1  0  0  0  0
 14 44  1  0  0  0  0
 15 16  1  0  0  0  0
 15 45  1  0  0  0  0
 15 46  1  0  0  0  0
 16 17  1  0  0  0  0
 16 47  1  0  0  0  0
 16 48  1  0  0  0  0
 17 18  1  0  0  0  0
 17 49  1  0  0  0  0
 17 50  1  0  0  0  0
 18 19  1  0  0  0  0
 18 51  1  0  0  0  0
 18 52  1  0  0  0  0
 19 20  1  0  0  0  0
 19 53  1  0  0  0  0
 19 54  1  0  0  0  0
 20 21  1  0  0  0  0
 20 55  1  0  0  0  0
 20 56  1  0  0  0  0
 21 57  1  0  0  0  0
 21 58  1  0  0  0  0
 21 59  1  0  0  0  0
M  END
$$$$
