
 OpenBabel04232217003D

 57 58  0  0  0  0  0  0  0  0999 V2000
    7.3786    2.1153    1.4307 O   0  0  0  0  0  0  0  0  0  0  0  0
    7.6773    0.7948    1.1019 C   0  0  0  0  0  0  0  0  0  0  0  0
    6.5873    0.0020    0.8889 C   0  0  0  0  0  0  0  0  0  0  0  0
    5.2970    0.4736    0.1683 C   0  0  0  0  0  0  0  0  0  0  0  0
    6.2429   -1.3391    1.5006 C   0  0  0  0  0  0  0  0  0  0  0  0
    6.7237   -1.6902    2.8781 C   0  0  0  0  0  0  0  0  0  0  0  0
    5.6034   -2.5553    3.5732 C   0  0  0  0  0  0  0  0  0  0  0  0
    4.8602   -2.3362    4.9121 C   0  0  0  0  0  0  0  0  0  0  0  0
    4.6603   -0.9218    5.3703 C   0  0  0  0  0  0  0  0  0  0  0  0
    8.0081   -1.3849    3.2463 C   0  0  0  0  0  0  0  0  0  0  0  0
    9.1188   -0.9603    2.2380 C   0  0  0  0  0  0  0  0  0  0  0  0
    9.6639   -2.0542    1.6869 C   0  0  0  0  0  0  0  0  0  0  0  0
   10.3858   -2.0348    0.4337 C   0  0  0  0  0  0  0  0  0  0  0  0
   11.6905   -1.7688    0.4168 C   0  0  0  0  0  0  0  0  0  0  0  0
   12.4729   -1.3999   -0.7614 C   0  0  0  0  0  0  0  0  0  0  0  0
   11.7095   -0.5781   -1.8361 C   0  0  0  0  0  0  0  0  0  0  0  0
   12.3025    0.4935   -2.7547 C   0  0  0  0  0  0  0  0  0  0  0  0
   13.7886   -1.6274   -0.5694 C   0  0  0  0  0  0  0  0  0  0  0  0
   14.8415   -0.8836   -1.2149 C   0  0  0  0  0  0  0  0  0  0  0  0
   15.1388    0.1851   -0.4472 C   0  0  0  0  0  0  0  0  0  0  0  0
   14.2904    1.3314   -0.5234 N   0  0  0  0  0  0  0  0  0  0  0  0
   14.9840    2.3119   -1.4541 C   0  0  0  0  0  0  0  0  0  0  0  0
   13.2478    1.5580    0.5924 C   0  0  0  0  0  0  0  0  0  0  0  0
   11.8695    1.4457    0.8545 C   0  0  0  0  0  0  0  0  0  0  0  0
   10.2534    1.2214    0.9754 C   0  0  0  0  0  0  0  0  0  0  0  0
    9.1640    0.3947    1.4634 C   0  0  0  0  0  0  0  0  0  0  0  0
    6.5364    2.0482    1.9512 H   0  0  0  0  0  0  0  0  0  0  0  0
    4.3836   -0.0207    0.5397 H   0  0  0  0  0  0  0  0  0  0  0  0
    5.3289    0.1847   -0.8912 H   0  0  0  0  0  0  0  0  0  0  0  0
    5.0999    1.5349    0.2738 H   0  0  0  0  0  0  0  0  0  0  0  0
    6.2016   -2.1866    0.8091 H   0  0  0  0  0  0  0  0  0  0  0  0
    5.1916   -1.1557    1.7615 H   0  0  0  0  0  0  0  0  0  0  0  0
    5.8810   -3.6105    3.5225 H   0  0  0  0  0  0  0  0  0  0  0  0
    4.7301   -2.5471    2.8911 H   0  0  0  0  0  0  0  0  0  0  0  0
    5.3187   -2.9242    5.7162 H   0  0  0  0  0  0  0  0  0  0  0  0
    3.8469   -2.7723    4.8106 H   0  0  0  0  0  0  0  0  0  0  0  0
    5.6147   -0.3842    5.4857 H   0  0  0  0  0  0  0  0  0  0  0  0
    4.1322   -0.9028    6.3155 H   0  0  0  0  0  0  0  0  0  0  0  0
    4.0167   -0.3583    4.6609 H   0  0  0  0  0  0  0  0  0  0  0  0
    8.3826   -1.6577    4.2315 H   0  0  0  0  0  0  0  0  0  0  0  0
    9.4777   -3.0511    2.0652 H   0  0  0  0  0  0  0  0  0  0  0  0
    9.8030   -2.1112   -0.4770 H   0  0  0  0  0  0  0  0  0  0  0  0
   12.2020   -1.6668    1.3794 H   0  0  0  0  0  0  0  0  0  0  0  0
   10.8811   -0.0567   -1.3428 H   0  0  0  0  0  0  0  0  0  0  0  0
   11.2206   -1.3052   -2.4942 H   0  0  0  0  0  0  0  0  0  0  0  0
   12.7281    1.3378   -2.2068 H   0  0  0  0  0  0  0  0  0  0  0  0
   11.5023    0.9781   -3.3410 H   0  0  0  0  0  0  0  0  0  0  0  0
   13.0439    0.1215   -3.4503 H   0  0  0  0  0  0  0  0  0  0  0  0
   14.1272   -2.1426    0.3337 H   0  0  0  0  0  0  0  0  0  0  0  0
   14.6008   -0.7318   -2.2637 H   0  0  0  0  0  0  0  0  0  0  0  0
   15.4598    0.0264    0.5817 H   0  0  0  0  0  0  0  0  0  0  0  0
   14.3158    2.8061   -2.1604 H   0  0  0  0  0  0  0  0  0  0  0  0
   15.6845    1.7564   -2.1329 H   0  0  0  0  0  0  0  0  0  0  0  0
   15.6479    3.0214   -0.9499 H   0  0  0  0  0  0  0  0  0  0  0  0
   13.9204    1.7583    1.4385 H   0  0  0  0  0  0  0  0  0  0  0  0
   11.6929    1.5085   -0.2386 H   0  0  0  0  0  0  0  0  0  0  0  0
    9.8586    2.0669    0.4069 H   0  0  0  0  0  0  0  0  0  0  0  0
  1  2  1  0  0  0  0
  1 27  1  0  0  0  0
  2  3  2  0  0  0  0
  2 26  1  0  0  0  0
  3  4  1  0  0  0  0
  3  5  1  0  0  0  0
  4 28  1  0  0  0  0
  4 29  1  0  0  0  0
  4 30  1  0  0  0  0
  5  6  1  0  0  0  0
  5 31  1  0  0  0  0
  5 32  1  0  0  0  0
  6  7  1  0  0  0  0
  6 10  2  0  0  0  0
  7  8  1  0  0  0  0
  7 33  1  0  0  0  0
  7 34  1  0  0  0  0
  8  9  1  0  0  0  0
  8 35  1  0  0  0  0
  8 36  1  0  0  0  0
  9 37  1  0  0  0  0
  9 38  1  0  0  0  0
  9 39  1  0  0  0  0
 10 11  1  0  0  0  0
 10 40  1  0  0  0  0
 11 12  2  0  0  0  0
 11 26  1  0  0  0  0
 12 13  1  0  0  0  0
 12 41  1  0  0  0  0
 13 14  2  0  0  0  0
 13 42  1  0  0  0  0
 14 15  1  0  0  0  0
 14 43  1  0  0  0  0
 15 16  1  0  0  0  0
 15 18  2  0  0  0  0
 16 17  1  0  0  0  0
 16 44  1  0  0  0  0
 16 45  1  0  0  0  0
 17 46  1  0  0  0  0
 17 47  1  0  0  0  0
 17 48  1  0  0  0  0
 18 19  1  0  0  0  0
 18 49  1  0  0  0  0
 19 20  2  0  0  0  0
 19 50  1  0  0  0  0
 20 21  1  0  0  0  0
 20 51  1  0  0  0  0
 21 22  1  0  0  0  0
 21 23  1  0  0  0  0
 22 52  1  0  0  0  0
 22 53  1  0  0  0  0
 22 54  1  0  0  0  0
 23 24  2  0  0  0  0
 23 55  1  0  0  0  0
 24 25  1  0  0  0  0
 24 56  1  0  0  0  0
 25 26  2  0  0  0  0
 25 57  1  0  0  0  0
M  END
$$$$
