
 OpenBabel04232216523D

 44 45  0  0  0  0  0  0  0  0999 V2000
    1.4760    0.7255    1.1720 C   0  0  0  0  0  0  0  0  0  0  0  0
    2.7620    0.2768    0.4784 C   0  0  0  0  0  0  0  0  0  0  0  0
    3.1471   -1.0934    1.0570 C   0  0  0  0  0  0  0  0  0  0  0  0
    4.4119   -1.7447    0.5030 C   0  0  0  0  0  0  0  0  0  0  0  0
    4.7898   -3.1734    1.1415 C   0  0  0  0  0  0  0  0  0  0  0  0
    5.5251   -2.8841    2.1283 N   0  0  0  0  0  0  0  0  0  0  0  0
    6.0606   -3.8217    2.8737 C   0  0  0  0  0  0  0  0  0  0  0  0
    6.7629   -3.4184    3.8028 O   0  0  0  0  0  0  0  0  0  0  0  0
    5.8098   -5.1871    2.6320 N   0  0  0  0  0  0  0  0  0  0  0  0
    6.4528   -5.8409    3.7298 C   0  0  0  0  0  0  0  0  0  0  0  0
    6.3026   -7.0930    3.9655 C   0  0  0  0  0  0  0  0  0  0  0  0
    5.2244   -7.4044    3.1634 C   0  0  0  0  0  0  0  0  0  0  0  0
    6.6264   -8.2069    4.6877 C   0  0  0  0  0  0  0  0  0  0  0  0
    6.2501   -9.3486    4.1022 C   0  0  0  0  0  0  0  0  0  0  0  0
    5.2714  -10.1908    3.3201 C   0  0  0  0  0  0  0  0  0  0  0  0
    6.0637  -11.0501    4.6955 C   0  0  0  0  0  0  0  0  0  0  0  0
    4.6194   -9.4099    2.1718 C   0  0  0  0  0  0  0  0  0  0  0  0
    4.3021   -7.7241    1.1944 C   0  0  0  0  0  0  0  0  0  0  0  0
    3.5438   -7.9512    0.2242 O   0  0  0  0  0  0  0  0  0  0  0  0
    4.8356   -5.8280    1.4188 C   0  0  0  0  0  0  0  0  0  0  0  0
    4.3976   -4.6820    0.6810 C   0  0  0  0  0  0  0  0  0  0  0  0
    3.5988   -4.4539   -0.5678 C   0  0  0  0  0  0  0  0  0  0  0  0
    1.1229    1.6869    0.7912 H   0  0  0  0  0  0  0  0  0  0  0  0
    1.6301    0.8136    2.2537 H   0  0  0  0  0  0  0  0  0  0  0  0
    0.6823   -0.0128    1.0103 H   0  0  0  0  0  0  0  0  0  0  0  0
    3.5457    1.0310    0.6239 H   0  0  0  0  0  0  0  0  0  0  0  0
    2.5764    0.2015   -0.6001 H   0  0  0  0  0  0  0  0  0  0  0  0
    2.3193   -1.7576    0.8425 H   0  0  0  0  0  0  0  0  0  0  0  0
    3.2139   -1.0087    2.1506 H   0  0  0  0  0  0  0  0  0  0  0  0
    5.2159   -1.0282    0.7999 H   0  0  0  0  0  0  0  0  0  0  0  0
    4.4848   -1.7487   -0.5792 H   0  0  0  0  0  0  0  0  0  0  0  0
    7.0120   -5.3028    4.4867 H   0  0  0  0  0  0  0  0  0  0  0  0
    4.4386   -6.6648    3.1754 H   0  0  0  0  0  0  0  0  0  0  0  0
    4.4904   -8.0575    3.5887 H   0  0  0  0  0  0  0  0  0  0  0  0
    5.8766   -7.6451    2.2272 H   0  0  0  0  0  0  0  0  0  0  0  0
    7.0869   -8.1707    5.6606 H   0  0  0  0  0  0  0  0  0  0  0  0
    6.6644   -9.2175    3.0966 H   0  0  0  0  0  0  0  0  0  0  0  0
    6.7116  -10.5251    5.4982 H   0  0  0  0  0  0  0  0  0  0  0  0
    6.8674  -11.7246    4.3405 H   0  0  0  0  0  0  0  0  0  0  0  0
    5.3874  -11.5341    5.4142 H   0  0  0  0  0  0  0  0  0  0  0  0
    4.0117  -10.1361    1.5829 H   0  0  0  0  0  0  0  0  0  0  0  0
    3.3213   -5.3344   -1.1323 H   0  0  0  0  0  0  0  0  0  0  0  0
    4.1884   -3.7976   -1.2319 H   0  0  0  0  0  0  0  0  0  0  0  0
    2.6823   -3.8985   -0.3387 H   0  0  0  0  0  0  0  0  0  0  0  0
  1  2  1  0  0  0  0
  1 23  1  0  0  0  0
  1 24  1  0  0  0  0
  1 25  1  0  0  0  0
  2  3  1  0  0  0  0
  2 26  1  0  0  0  0
  2 27  1  0  0  0  0
  3  4  1  0  0  0  0
  3 28  1  0  0  0  0
  3 29  1  0  0  0  0
  4  5  1  0  0  0  0
  4 30  1  0  0  0  0
  4 31  1  0  0  0  0
  5  6  2  0  0  0  0
  5 21  1  0  0  0  0
  6  7  1  0  0  0  0
  7  8  2  0  0  0  0
  7  9  1  0  0  0  0
  9 10  1  0  0  0  0
  9 20  1  0  0  0  0
 10 11  2  3  0  0  0
 10 32  1  0  0  0  0
 11 12  1  0  0  0  0
 11 13  1  0  0  0  0
 12 33  1  0  0  0  0
 12 34  1  0  0  0  0
 12 35  1  0  0  0  0
 13 14  2  3  0  0  0
 13 36  1  0  0  0  0
 14 15  1  0  0  0  0
 14 37  1  0  0  0  0
 15 16  1  0  0  0  0
 15 17  2  3  0  0  0
 16 38  1  0  0  0  0
 16 39  1  0  0  0  0
 16 40  1  0  0  0  0
 17 18  1  0  0  0  0
 17 41  1  0  0  0  0
 18 19  2  0  0  0  0
 18 20  1  0  0  0  0
 20 21  2  0  0  0  0
 21 22  1  0  0  0  0
 22 42  1  0  0  0  0
 22 43  1  0  0  0  0
 22 44  1  0  0  0  0
M  END
$$$$
