
 OpenBabel04232216473D

 47 48  0  0  0  0  0  0  0  0999 V2000
    8.6832    2.5755   -2.8214 C   0  0  0  0  0  0  0  0  0  0  0  0
    8.7723    1.4681   -3.8714 C   0  0  0  0  0  0  0  0  0  0  0  0
    7.5371    1.0087   -4.2245 C   0  0  0  0  0  0  0  0  0  0  0  0
    6.4289    0.6586   -3.2675 C   0  0  0  0  0  0  0  0  0  0  0  0
    6.1642   -0.6712   -3.1189 C   0  0  0  0  0  0  0  0  0  0  0  0
    5.1138   -1.2255   -4.0526 C   0  0  0  0  0  0  0  0  0  0  0  0
    7.3282   -1.4950   -2.5890 C   0  0  0  0  0  0  0  0  0  0  0  0
    7.9639   -0.9200   -1.3039 C   0  0  0  0  0  0  0  0  0  0  0  0
    9.0716   -1.5718   -0.4640 C   0  0  0  0  0  0  0  0  0  0  0  0
    7.9519   -2.2665   -3.5245 C   0  0  0  0  0  0  0  0  0  0  0  0
    9.2864   -1.7014   -3.9382 C   0  0  0  0  0  0  0  0  0  0  0  0
   10.2602   -1.7165   -3.2155 O   0  0  0  0  0  0  0  0  0  0  0  0
    9.3377   -1.2535   -5.3592 C   0  0  0  0  0  0  0  0  0  0  0  0
    9.9166   -0.0886   -5.7005 C   0  0  0  0  0  0  0  0  0  0  0  0
   10.7009   -0.1862   -6.9246 C   0  0  0  0  0  0  0  0  0  0  0  0
   11.7518   -1.0331   -6.8886 C   0  0  0  0  0  0  0  0  0  0  0  0
   12.9906   -0.7038   -7.5572 C   0  0  0  0  0  0  0  0  0  0  0  0
   12.9169   -0.4286   -9.0364 C   0  0  0  0  0  0  0  0  0  0  0  0
   13.8513   -0.0476   -6.7473 C   0  0  0  0  0  0  0  0  0  0  0  0
   13.5108    1.2527   -6.1389 C   0  0  0  0  0  0  0  0  0  0  0  0
   12.5684    1.7654   -5.3148 C   0  0  0  0  0  0  0  0  0  0  0  0
   11.3283    1.5308   -4.4810 C   0  0  0  0  0  0  0  0  0  0  0  0
   10.0572    1.0586   -4.7187 C   0  0  0  0  0  0  0  0  0  0  0  0
    9.1386    2.3464   -1.8579 H   0  0  0  0  0  0  0  0  0  0  0  0
    7.6263    2.8071   -2.5828 H   0  0  0  0  0  0  0  0  0  0  0  0
    9.0194    3.5352   -3.2216 H   0  0  0  0  0  0  0  0  0  0  0  0
    7.3457    0.6613   -5.2338 H   0  0  0  0  0  0  0  0  0  0  0  0
    6.6223    1.1143   -2.2911 H   0  0  0  0  0  0  0  0  0  0  0  0
    4.1428   -1.2409   -3.5489 H   0  0  0  0  0  0  0  0  0  0  0  0
    5.3095   -2.2283   -4.4380 H   0  0  0  0  0  0  0  0  0  0  0  0
    5.0020   -0.5683   -4.9275 H   0  0  0  0  0  0  0  0  0  0  0  0
    7.1410   -0.7640   -0.6044 H   0  0  0  0  0  0  0  0  0  0  0  0
    8.3618    0.0668   -1.5447 H   0  0  0  0  0  0  0  0  0  0  0  0
    8.6868   -2.3074    0.2438 H   0  0  0  0  0  0  0  0  0  0  0  0
    9.5329   -0.7758    0.1434 H   0  0  0  0  0  0  0  0  0  0  0  0
    9.8883   -2.0264   -1.0251 H   0  0  0  0  0  0  0  0  0  0  0  0
    7.4116   -2.6063   -4.3997 H   0  0  0  0  0  0  0  0  0  0  0  0
    9.1372   -2.0329   -6.0799 H   0  0  0  0  0  0  0  0  0  0  0  0
   10.6428    0.6323   -7.6315 H   0  0  0  0  0  0  0  0  0  0  0  0
   11.8873   -1.7051   -6.0334 H   0  0  0  0  0  0  0  0  0  0  0  0
   11.8892   -0.3276   -9.3990 H   0  0  0  0  0  0  0  0  0  0  0  0
   13.3707   -1.2604   -9.5890 H   0  0  0  0  0  0  0  0  0  0  0  0
   13.4563    0.4850   -9.3059 H   0  0  0  0  0  0  0  0  0  0  0  0
   14.2910   -0.6493   -5.9419 H   0  0  0  0  0  0  0  0  0  0  0  0
   14.2773    1.9647   -6.4830 H   0  0  0  0  0  0  0  0  0  0  0  0
   12.8129    2.8142   -5.1157 H   0  0  0  0  0  0  0  0  0  0  0  0
   11.4839    2.0180   -3.5131 H   0  0  0  0  0  0  0  0  0  0  0  0
  1  2  1  0  0  0  0
  1 24  1  0  0  0  0
  1 25  1  0  0  0  0
  1 26  1  0  0  0  0
  2  3  2  3  0  0  0
  2 23  1  0  0  0  0
  3  4  1  0  0  0  0
  3 27  1  0  0  0  0
  4  5  2  3  0  0  0
  4 28  1  0  0  0  0
  5  6  1  0  0  0  0
  5  7  1  0  0  0  0
  6 29  1  0  0  0  0
  6 30  1  0  0  0  0
  6 31  1  0  0  0  0
  7  8  1  0  0  0  0
  7 10  2  3  0  0  0
  8  9  1  0  0  0  0
  8 32  1  0  0  0  0
  8 33  1  0  0  0  0
  9 34  1  0  0  0  0
  9 35  1  0  0  0  0
  9 36  1  0  0  0  0
 10 11  1  0  0  0  0
 10 37  1  0  0  0  0
 11 12  2  0  0  0  0
 11 13  1  0  0  0  0
 13 14  2  3  0  0  0
 13 38  1  0  0  0  0
 14 15  1  0  0  0  0
 14 23  1  0  0  0  0
 15 16  2  3  0  0  0
 15 39  1  0  0  0  0
 16 17  1  0  0  0  0
 16 40  1  0  0  0  0
 17 18  1  0  0  0  0
 17 19  2  3  0  0  0
 18 41  1  0  0  0  0
 18 42  1  0  0  0  0
 18 43  1  0  0  0  0
 19 20  1  0  0  0  0
 19 44  1  0  0  0  0
 20 21  2  3  0  0  0
 20 45  1  0  0  0  0
 21 22  1  0  0  0  0
 21 46  1  0  0  0  0
 22 23  2  3  0  0  0
 22 47  1  0  0  0  0
M  END
$$$$
