
 OpenBabel04232216523D

 30 30  0  0  0  0  0  0  0  0999 V2000
    0.7427    1.3624   -1.9714 C   0  0  0  0  0  0  0  0  0  0  0  0
    2.2627    1.3797   -1.9975 C   0  0  0  0  0  0  0  0  0  0  0  0
    2.8455    1.3323   -0.5822 C   0  0  0  0  0  0  0  0  0  0  0  0
    4.4038    1.3365   -0.6235 C   0  0  0  0  0  0  0  0  0  0  0  0
    5.2253    2.5563   -1.2745 C   0  0  0  0  0  0  0  0  0  0  0  0
    6.6306    2.5264   -1.2721 C   0  0  0  0  0  0  0  0  0  0  0  0
    7.3906    3.6916   -1.8846 C   0  0  0  0  0  0  0  0  0  0  0  0
    8.7316    3.8707   -1.1832 C   0  0  0  0  0  0  0  0  0  0  0  0
    9.5147    5.0405   -1.7729 C   0  0  0  0  0  0  0  0  0  0  0  0
   10.8455    5.2332   -1.0592 C   0  0  0  0  0  0  0  0  0  0  0  0
   11.5430    6.3296   -1.6351 O   0  0  0  0  0  0  0  0  0  0  0  0
    5.1904    0.3185   -0.1113 C   0  0  0  0  0  0  0  0  0  0  0  0
    0.3461    1.3929   -2.9912 H   0  0  0  0  0  0  0  0  0  0  0  0
    0.3507    2.2280   -1.4281 H   0  0  0  0  0  0  0  0  0  0  0  0
    0.3686    0.4540   -1.4880 H   0  0  0  0  0  0  0  0  0  0  0  0
    2.5978    2.2822   -2.5220 H   0  0  0  0  0  0  0  0  0  0  0  0
    2.6242    0.5230   -2.5791 H   0  0  0  0  0  0  0  0  0  0  0  0
    2.4806    0.4539   -0.0389 H   0  0  0  0  0  0  0  0  0  0  0  0
    2.5221    2.2498   -0.0777 H   0  0  0  0  0  0  0  0  0  0  0  0
    4.6429    3.3888   -1.7018 H   0  0  0  0  0  0  0  0  0  0  0  0
    6.7904    4.6082   -1.8960 H   0  0  0  0  0  0  0  0  0  0  0  0
    7.5935    3.4370   -2.9331 H   0  0  0  0  0  0  0  0  0  0  0  0
    9.3231    2.9504   -1.2618 H   0  0  0  0  0  0  0  0  0  0  0  0
    8.5646    4.0478   -0.1121 H   0  0  0  0  0  0  0  0  0  0  0  0
    8.9294    5.9648   -1.7043 H   0  0  0  0  0  0  0  0  0  0  0  0
    9.6929    4.8764   -2.8430 H   0  0  0  0  0  0  0  0  0  0  0  0
   11.4744    4.3411   -1.1358 H   0  0  0  0  0  0  0  0  0  0  0  0
   10.6897    5.4539    0.0018 H   0  0  0  0  0  0  0  0  0  0  0  0
   11.7090    6.1146   -2.5687 H   0  0  0  0  0  0  0  0  0  0  0  0
    6.1826   -0.0891    0.0732 H   0  0  0  0  0  0  0  0  0  0  0  0
  1  2  1  0  0  0  0
  1 13  1  0  0  0  0
  1 14  1  0  0  0  0
  1 15  1  0  0  0  0
  2  3  1  0  0  0  0
  2 16  1  0  0  0  0
  2 17  1  0  0  0  0
  3  4  1  0  0  0  0
  3 18  1  0  0  0  0
  3 19  1  0  0  0  0
  4  5  1  0  0  0  0
  4 12  2  0  0  0  0
  5  6  2  0  0  0  0
  5 20  1  0  0  0  0
  6  7  1  0  0  0  0
  6 12  1  0  0  0  0
  7  8  1  0  0  0  0
  7 21  1  0  0  0  0
  7 22  1  0  0  0  0
  8  9  1  0  0  0  0
  8 23  1  0  0  0  0
  8 24  1  0  0  0  0
  9 10  1  0  0  0  0
  9 25  1  0  0  0  0
  9 26  1  0  0  0  0
 10 11  1  0  0  0  0
 10 27  1  0  0  0  0
 10 28  1  0  0  0  0
 11 29  1  0  0  0  0
 12 30  1  0  0  0  0
M  END
$$$$
