
 OpenBabel04232216473D

213213  0  0  1  0  0  0  0  0999 V2000
    7.7497   -2.4493    8.0197 C   0  0  0  0  0  0  0  0  0  0  0  0
    7.3616   -2.2483    9.4468 C   0  0  3  0  0  0  0  0  0  0  0  0
    6.1790   -2.6760    9.9347 C   0  0  0  0  0  0  0  0  0  0  0  0
    6.0735   -1.3957    9.7394 C   0  0  0  0  0  0  0  0  0  0  0  0
    6.5154   -0.0052    9.3538 C   0  0  0  0  0  0  0  0  0  0  0  0
    5.8888    1.1473   10.1165 C   0  0  0  0  0  0  0  0  0  0  0  0
    6.4340    2.3650    9.5954 O   0  0  0  0  0  0  0  0  0  0  0  0
    6.0685    2.3713    8.1785 O   0  0  0  0  0  0  0  0  0  0  0  0
    4.6410    2.2961    8.0267 O   0  0  0  0  0  0  0  0  0  0  0  0
    4.0475    3.4386    8.6536 O   0  0  0  0  0  0  0  0  0  0  0  0
    2.6281    3.3684    8.5257 O   0  0  0  0  0  0  0  0  0  0  0  0
    2.0501    4.5216    9.1364 O   0  0  0  0  0  0  0  0  0  0  0  0
    2.4159    4.5400   10.5259 O   0  0  0  0  0  0  0  0  0  0  0  0
    1.8059    5.7025   11.0114 C   0  0  0  0  0  0  0  0  0  0  0  0
    2.1150    5.7992   12.3795 O   0  0  0  0  0  0  0  0  0  0  0  0
    1.5158    6.9503   12.9199 C   0  0  0  0  0  0  0  0  0  0  0  0
    1.8979    6.9767   14.3749 C   0  0  0  0  0  0  0  0  0  0  0  0
    1.2784    8.1970   15.0104 C   0  0  0  0  0  0  0  0  0  0  0  0
    1.6427    8.2552   16.4760 C   0  0  0  0  0  0  0  0  0  0  0  0
    1.0144    9.4842   17.1000 C   0  0  0  0  0  0  0  0  0  0  0  0
    1.3745    9.5507   18.5699 C   0  0  0  0  0  0  0  0  0  0  0  0
    0.7468   10.7799   19.1965 C   0  0  0  0  0  0  0  0  0  0  0  0
    1.1073   10.8463   20.6677 C   0  0  0  0  0  0  0  0  0  0  0  0
    0.4800   12.0756   21.2959 C   0  0  0  0  0  0  0  0  0  0  0  0
    0.8406   12.1419   22.7673 C   0  0  0  0  0  0  0  0  0  0  0  0
    0.2133   13.3713   23.3957 C   0  0  0  0  0  0  0  0  0  0  0  0
    0.5755   13.4389   24.8669 C   0  0  0  0  0  0  0  0  0  0  0  0
   -0.0519   14.6683   25.4952 C   0  0  0  0  0  0  0  0  0  0  0  0
    0.3120   14.7370   26.9659 C   0  0  0  0  0  0  0  0  0  0  0  0
   -0.3137   15.9675   27.5940 C   0  0  0  0  0  0  0  0  0  0  0  0
    0.0502   16.0362   29.0647 C   0  0  0  0  0  0  0  0  0  0  0  0
   -0.5772   17.2657   29.6931 C   0  0  0  0  0  0  0  0  0  0  0  0
   -0.2117   17.3354   31.1635 C   0  0  0  0  0  0  0  0  0  0  0  0
   -0.8391   18.5649   31.7919 C   0  0  0  0  0  0  0  0  0  0  0  0
   -0.4736   18.6347   33.2622 C   0  0  0  0  0  0  0  0  0  0  0  0
   -1.1010   19.8641   33.8907 C   0  0  0  0  0  0  0  0  0  0  0  0
   -0.7354   19.9339   35.3610 C   0  0  0  0  0  0  0  0  0  0  0  0
   -1.3628   21.1634   35.9895 C   0  0  0  0  0  0  0  0  0  0  0  0
   -0.9973   21.2331   37.4597 C   0  0  0  0  0  0  0  0  0  0  0  0
   -1.6230   22.4636   38.0877 C   0  0  0  0  0  0  0  0  0  0  0  0
   -1.2591   22.5323   39.5584 C   0  0  0  0  0  0  0  0  0  0  0  0
   -1.8849   23.7628   40.1864 C   0  0  0  0  0  0  0  0  0  0  0  0
   -1.5210   23.8315   41.6571 C   0  0  0  0  0  0  0  0  0  0  0  0
   -2.1467   25.0620   42.2851 C   0  0  0  0  0  0  0  0  0  0  0  0
   -1.7812   25.1317   43.7554 C   0  0  0  0  0  0  0  0  0  0  0  0
   -2.4086   26.3612   44.3838 C   0  0  0  0  0  0  0  0  0  0  0  0
   -2.0447   26.4299   45.8546 C   0  0  0  0  0  0  0  0  0  0  0  0
   -2.6705   27.6604   46.4826 C   0  0  0  0  0  0  0  0  0  0  0  0
   -2.3049   27.7301   47.9528 C   0  0  0  0  0  0  0  0  0  0  0  0
   -2.9323   28.9596   48.5813 C   0  0  0  0  0  0  0  0  0  0  0  0
   -2.5668   29.0293   50.0515 C   0  0  0  0  0  0  0  0  0  0  0  0
   -3.1942   30.2588   50.6800 C   0  0  0  0  0  0  0  0  0  0  0  0
   -2.8270   30.3296   52.1498 C   0  0  0  0  0  0  0  0  0  0  0  0
   -3.4544   31.5591   52.7783 C   0  0  0  0  0  0  0  0  0  0  0  0
   -3.0872   31.6299   54.2481 C   0  0  0  0  0  0  0  0  0  0  0  0
   -3.7130   32.8605   54.8761 C   0  0  0  0  0  0  0  0  0  0  0  0
   -3.3458   32.9313   56.3460 C   0  0  0  0  0  0  0  0  0  0  0  0
   -3.9732   34.1608   56.9744 C   0  0  0  0  0  0  0  0  0  0  0  0
   -3.6044   34.2326   58.4438 C   0  0  0  0  0  0  0  0  0  0  0  0
   -4.2333   35.4610   59.0728 C   0  0  0  0  0  0  0  0  0  0  0  0
   -3.8662   35.5319   60.5426 C   0  0  0  0  0  0  0  0  0  0  0  0
   -4.4936   36.7614   61.1710 C   0  0  0  0  0  0  0  0  0  0  0  0
   -4.1248   36.8332   62.6403 C   0  0  0  0  0  0  0  0  0  0  0  0
   -4.7538   38.0616   63.2693 C   0  0  0  0  0  0  0  0  0  0  0  0
   -4.3867   38.1324   64.7390 C   0  0  0  0  0  0  0  0  0  0  0  0
   -5.0173   39.3598   65.3685 C   0  0  0  0  0  0  0  0  0  0  0  0
   -4.6502   39.4307   66.8384 C   0  0  0  0  0  0  0  0  0  0  0  0
   -5.2792   40.6592   67.4678 C   0  0  0  0  0  0  0  0  0  0  0  0
   -4.9136   40.7290   68.9384 C   0  0  0  0  0  0  0  0  0  0  0  0
   -5.5403   41.9583   69.5690 C   0  0  0  0  0  0  0  0  0  0  0  0
   -5.1722   42.0282   71.0401 C   0  0  0  0  0  0  0  0  0  0  0  0
   -5.7998   43.2556   71.6716 C   0  0  0  0  0  0  0  0  0  0  0  0
   -5.4362   43.3344   73.1424 C   0  0  0  0  0  0  0  0  0  0  0  0
   -6.0630   44.5662   73.7511 C   0  0  0  0  0  0  0  0  0  0  0  0
   -5.6960   44.6289   75.1235 O   0  0  0  0  0  0  0  0  0  0  0  0
   -6.3041   45.7684   75.7301 C   0  0  0  0  0  0  0  0  0  0  0  0
   -7.7271   45.7382   75.6408 O   0  0  0  0  0  0  0  0  0  0  0  0
   -8.2415   44.5748   76.2760 C   0  0  0  0  0  0  0  0  0  0  0  0
   -9.6507   44.5351   76.1556 O   0  0  0  0  0  0  0  0  0  0  0  0
    8.4239   -3.3052    7.9466 H   0  0  0  0  0  0  0  0  0  0  0  0
    8.2712   -1.5601    7.6553 H   0  0  0  0  0  0  0  0  0  0  0  0
    6.8824   -2.6265    7.3799 H   0  0  0  0  0  0  0  0  0  0  0  0
    8.1824   -2.0926   10.1320 H   0  0  0  0  0  0  0  0  0  0  0  0
    5.7396   -3.6150   10.2366 H   0  0  0  0  0  0  0  0  0  0  0  0
    6.2894    0.1472    8.2925 H   0  0  0  0  0  0  0  0  0  0  0  0
    7.6032    0.1118    9.4277 H   0  0  0  0  0  0  0  0  0  0  0  0
    6.1224    1.1164   11.1857 H   0  0  0  0  0  0  0  0  0  0  0  0
    4.8035    1.1761    9.9989 H   0  0  0  0  0  0  0  0  0  0  0  0
    0.7223    5.6228   10.8692 H   0  0  0  0  0  0  0  0  0  0  0  0
    2.1893    6.5750   10.4688 H   0  0  0  0  0  0  0  0  0  0  0  0
    0.4273    6.8920   12.8038 H   0  0  0  0  0  0  0  0  0  0  0  0
    1.8882    7.8424   12.4028 H   0  0  0  0  0  0  0  0  0  0  0  0
    2.9911    6.9875   14.4749 H   0  0  0  0  0  0  0  0  0  0  0  0
    1.5591    6.0560   14.8678 H   0  0  0  0  0  0  0  0  0  0  0  0
    0.1880    8.1620   14.8929 H   0  0  0  0  0  0  0  0  0  0  0  0
    1.6307    9.1005   14.4971 H   0  0  0  0  0  0  0  0  0  0  0  0
    2.7333    8.2893   16.5892 H   0  0  0  0  0  0  0  0  0  0  0  0
    1.2896    7.3501   16.9853 H   0  0  0  0  0  0  0  0  0  0  0  0
   -0.0758    9.4483   16.9812 H   0  0  0  0  0  0  0  0  0  0  0  0
    1.3669   10.3868   16.5853 H   0  0  0  0  0  0  0  0  0  0  0  0
    2.4648    9.5857   18.6858 H   0  0  0  0  0  0  0  0  0  0  0  0
    1.0217    8.6469   19.0818 H   0  0  0  0  0  0  0  0  0  0  0  0
   -0.3434   10.7443   19.0792 H   0  0  0  0  0  0  0  0  0  0  0  0
    1.0996   11.6830   18.6832 H   0  0  0  0  0  0  0  0  0  0  0  0
    2.1976   10.8814   20.7842 H   0  0  0  0  0  0  0  0  0  0  0  0
    0.7546    9.9428   21.1802 H   0  0  0  0  0  0  0  0  0  0  0  0
   -0.6102   12.0403   21.1790 H   0  0  0  0  0  0  0  0  0  0  0  0
    0.8327   12.9789   20.7831 H   0  0  0  0  0  0  0  0  0  0  0  0
    1.9308   12.1772   22.8840 H   0  0  0  0  0  0  0  0  0  0  0  0
    0.4879   11.2385   23.2800 H   0  0  0  0  0  0  0  0  0  0  0  0
   -0.8770   13.3353   23.2803 H   0  0  0  0  0  0  0  0  0  0  0  0
    0.5649   14.2746   22.8821 H   0  0  0  0  0  0  0  0  0  0  0  0
    1.6658   13.4749   24.9823 H   0  0  0  0  0  0  0  0  0  0  0  0
    0.2239   12.5356   25.3805 H   0  0  0  0  0  0  0  0  0  0  0  0
   -1.1423   14.6316   25.3810 H   0  0  0  0  0  0  0  0  0  0  0  0
    0.2986   15.5715   24.9806 H   0  0  0  0  0  0  0  0  0  0  0  0
    1.4025   14.7722   27.0801 H   0  0  0  0  0  0  0  0  0  0  0  0
   -0.0398   13.8344   27.4806 H   0  0  0  0  0  0  0  0  0  0  0  0
   -1.4041   15.9322   27.4797 H   0  0  0  0  0  0  0  0  0  0  0  0
    0.0381   16.8700   27.0791 H   0  0  0  0  0  0  0  0  0  0  0  0
    1.1406   16.0729   29.1788 H   0  0  0  0  0  0  0  0  0  0  0  0
   -0.3003   15.1330   29.5793 H   0  0  0  0  0  0  0  0  0  0  0  0
   -1.6677   17.2283   29.5802 H   0  0  0  0  0  0  0  0  0  0  0  0
   -0.2279   18.1688   29.1777 H   0  0  0  0  0  0  0  0  0  0  0  0
    0.8788   17.3727   31.2764 H   0  0  0  0  0  0  0  0  0  0  0  0
   -0.5609   16.4323   31.6789 H   0  0  0  0  0  0  0  0  0  0  0  0
   -1.9296   18.5277   31.6790 H   0  0  0  0  0  0  0  0  0  0  0  0
   -0.4900   19.4681   31.2764 H   0  0  0  0  0  0  0  0  0  0  0  0
    0.6170   18.6719   33.3753 H   0  0  0  0  0  0  0  0  0  0  0  0
   -0.8226   17.7315   33.7778 H   0  0  0  0  0  0  0  0  0  0  0  0
   -2.1915   19.8269   33.7777 H   0  0  0  0  0  0  0  0  0  0  0  0
   -0.7519   20.7673   33.3752 H   0  0  0  0  0  0  0  0  0  0  0  0
    0.3551   19.9711   35.4740 H   0  0  0  0  0  0  0  0  0  0  0  0
   -1.0845   19.0307   35.8766 H   0  0  0  0  0  0  0  0  0  0  0  0
   -2.4534   21.1262   35.8764 H   0  0  0  0  0  0  0  0  0  0  0  0
   -1.0137   22.0665   35.4739 H   0  0  0  0  0  0  0  0  0  0  0  0
    0.0933   21.2689   37.5729 H   0  0  0  0  0  0  0  0  0  0  0  0
   -1.3476   20.3305   37.9755 H   0  0  0  0  0  0  0  0  0  0  0  0
   -2.7135   22.4286   37.9734 H   0  0  0  0  0  0  0  0  0  0  0  0
   -1.2716   23.3662   37.5728 H   0  0  0  0  0  0  0  0  0  0  0  0
   -0.1687   22.5673   39.6728 H   0  0  0  0  0  0  0  0  0  0  0  0
   -1.6106   21.6297   40.0734 H   0  0  0  0  0  0  0  0  0  0  0  0
   -2.9754   23.7278   40.0721 H   0  0  0  0  0  0  0  0  0  0  0  0
   -1.5334   24.6654   39.6715 H   0  0  0  0  0  0  0  0  0  0  0  0
   -0.4305   23.8665   41.7715 H   0  0  0  0  0  0  0  0  0  0  0  0
   -1.8725   22.9289   42.1721 H   0  0  0  0  0  0  0  0  0  0  0  0
   -3.2373   25.0262   42.1720 H   0  0  0  0  0  0  0  0  0  0  0  0
   -1.7964   25.9646   41.7693 H   0  0  0  0  0  0  0  0  0  0  0  0
   -0.6907   25.1689   43.8684 H   0  0  0  0  0  0  0  0  0  0  0  0
   -2.1303   24.2285   44.2710 H   0  0  0  0  0  0  0  0  0  0  0  0
   -3.4990   26.3247   44.2696 H   0  0  0  0  0  0  0  0  0  0  0  0
   -2.0584   27.2645   43.8692 H   0  0  0  0  0  0  0  0  0  0  0  0
   -0.9542   26.4649   45.9689 H   0  0  0  0  0  0  0  0  0  0  0  0
   -2.3962   25.5272   46.3695 H   0  0  0  0  0  0  0  0  0  0  0  0
   -3.7611   27.6246   46.3694 H   0  0  0  0  0  0  0  0  0  0  0  0
   -2.3201   28.5630   45.9667 H   0  0  0  0  0  0  0  0  0  0  0  0
   -1.2144   27.7673   48.0658 H   0  0  0  0  0  0  0  0  0  0  0  0
   -2.6540   26.8269   48.4684 H   0  0  0  0  0  0  0  0  0  0  0  0
   -4.0229   28.9224   48.4682 H   0  0  0  0  0  0  0  0  0  0  0  0
   -2.5832   29.8628   48.0657 H   0  0  0  0  0  0  0  0  0  0  0  0
   -1.4762   29.0665   50.1645 H   0  0  0  0  0  0  0  0  0  0  0  0
   -2.9159   28.1261   50.5671 H   0  0  0  0  0  0  0  0  0  0  0  0
   -4.2848   30.2209   50.5682 H   0  0  0  0  0  0  0  0  0  0  0  0
   -2.8462   31.1619   50.1635 H   0  0  0  0  0  0  0  0  0  0  0  0
   -1.7364   30.3675   52.2615 H   0  0  0  0  0  0  0  0  0  0  0  0
   -3.1750   29.4265   52.6663 H   0  0  0  0  0  0  0  0  0  0  0  0
   -4.5450   31.5211   52.6665 H   0  0  0  0  0  0  0  0  0  0  0  0
   -3.1064   32.4621   52.2617 H   0  0  0  0  0  0  0  0  0  0  0  0
   -1.9965   31.6664   54.3599 H   0  0  0  0  0  0  0  0  0  0  0  0
   -3.4364   30.7274   54.7648 H   0  0  0  0  0  0  0  0  0  0  0  0
   -4.8037   32.8239   54.7643 H   0  0  0  0  0  0  0  0  0  0  0  0
   -3.3638   33.7629   54.3593 H   0  0  0  0  0  0  0  0  0  0  0  0
   -2.2552   32.9693   56.4576 H   0  0  0  0  0  0  0  0  0  0  0  0
   -3.6938   32.0283   56.8624 H   0  0  0  0  0  0  0  0  0  0  0  0
   -5.0639   34.1220   56.8640 H   0  0  0  0  0  0  0  0  0  0  0  0
   -3.6262   35.0637   56.4572 H   0  0  0  0  0  0  0  0  0  0  0  0
   -2.5137   34.2729   58.5541 H   0  0  0  0  0  0  0  0  0  0  0  0
   -3.9502   33.3291   58.9608 H   0  0  0  0  0  0  0  0  0  0  0  0
   -5.3239   35.4215   58.9613 H   0  0  0  0  0  0  0  0  0  0  0  0
   -3.8864   36.3647   58.5566 H   0  0  0  0  0  0  0  0  0  0  0  0
   -2.7756   35.5701   60.6542 H   0  0  0  0  0  0  0  0  0  0  0  0
   -4.2145   34.6289   61.0590 H   0  0  0  0  0  0  0  0  0  0  0  0
   -5.5843   36.7225   61.0606 H   0  0  0  0  0  0  0  0  0  0  0  0
   -4.1465   37.6643   60.6538 H   0  0  0  0  0  0  0  0  0  0  0  0
   -3.0341   36.8734   62.7506 H   0  0  0  0  0  0  0  0  0  0  0  0
   -4.4706   35.9296   63.1573 H   0  0  0  0  0  0  0  0  0  0  0  0
   -5.8444   38.0220   63.1576 H   0  0  0  0  0  0  0  0  0  0  0  0
   -4.4068   38.9652   62.7531 H   0  0  0  0  0  0  0  0  0  0  0  0
   -3.2961   38.1734   64.8505 H   0  0  0  0  0  0  0  0  0  0  0  0
   -4.7324   37.2281   65.2549 H   0  0  0  0  0  0  0  0  0  0  0  0
   -6.1078   39.3187   65.2569 H   0  0  0  0  0  0  0  0  0  0  0  0
   -4.6716   40.2640   64.8526 H   0  0  0  0  0  0  0  0  0  0  0  0
   -3.5596   39.4702   66.9499 H   0  0  0  0  0  0  0  0  0  0  0  0
   -4.9971   38.5269   67.3544 H   0  0  0  0  0  0  0  0  0  0  0  0
   -6.3696   40.6203   67.3548 H   0  0  0  0  0  0  0  0  0  0  0  0
   -4.9311   41.5628   66.9524 H   0  0  0  0  0  0  0  0  0  0  0  0
   -3.8230   40.7661   69.0508 H   0  0  0  0  0  0  0  0  0  0  0  0
   -5.2629   39.8256   69.4533 H   0  0  0  0  0  0  0  0  0  0  0  0
   -6.6309   41.9204   69.4569 H   0  0  0  0  0  0  0  0  0  0  0  0
   -5.1924   42.8614   69.0523 H   0  0  0  0  0  0  0  0  0  0  0  0
   -4.0817   42.0678   71.1503 H   0  0  0  0  0  0  0  0  0  0  0  0
   -5.5197   41.1243   71.5550 H   0  0  0  0  0  0  0  0  0  0  0  0
   -6.8905   43.2163   71.5573 H   0  0  0  0  0  0  0  0  0  0  0  0
   -5.4540   44.1587   71.1530 H   0  0  0  0  0  0  0  0  0  0  0  0
   -4.3489   43.3723   73.2729 H   0  0  0  0  0  0  0  0  0  0  0  0
   -5.7780   42.4383   73.6753 H   0  0  0  0  0  0  0  0  0  0  0  0
   -7.1553   44.5129   73.6458 H   0  0  0  0  0  0  0  0  0  0  0  0
   -5.7072   45.4692   73.2433 H   0  0  0  0  0  0  0  0  0  0  0  0
   -5.9327   46.6713   75.2344 H   0  0  0  0  0  0  0  0  0  0  0  0
   -6.0166   45.8076   76.7858 H   0  0  0  0  0  0  0  0  0  0  0  0
   -7.9609   44.5679   77.3353 H   0  0  0  0  0  0  0  0  0  0  0  0
   -7.8431   43.6701   75.8004 H   0  0  0  0  0  0  0  0  0  0  0  0
   -9.9860   45.2823   76.6771 H   0  0  0  0  0  0  0  0  0  0  0  0
  1  2  1  0  0  0  0
  1 80  1  0  0  0  0
  1 81  1  0  0  0  0
  1 82  1  0  0  0  0
  2  3  1  0  0  0  0
  2  4  1  0  0  0  0
  2 83  1  0  0  0  0
  3  4  2  0  0  0  0
  3 84  1  0  0  0  0
  4  5  1  0  0  0  0
  5  6  1  0  0  0  0
  5 85  1  0  0  0  0
  5 86  1  0  0  0  0
  6  7  1  0  0  0  0
  6 87  1  0  0  0  0
  6 88  1  0  0  0  0
  7  8  1  0  0  0  0
  8  9  1  0  0  0  0
  9 10  1  0  0  0  0
 10 11  1  0  0  0  0
 11 12  1  0  0  0  0
 12 13  1  0  0  0  0
 13 14  1  0  0  0  0
 14 15  1  0  0  0  0
 14 89  1  0  0  0  0
 14 90  1  0  0  0  0
 15 16  1  0  0  0  0
 16 17  1  0  0  0  0
 16 91  1  0  0  0  0
 16 92  1  0  0  0  0
 17 18  1  0  0  0  0
 17 93  1  0  0  0  0
 17 94  1  0  0  0  0
 18 19  1  0  0  0  0
 18 95  1  0  0  0  0
 18 96  1  0  0  0  0
 19 20  1  0  0  0  0
 19 97  1  0  0  0  0
 19 98  1  0  0  0  0
 20 21  1  0  0  0  0
 20 99  1  0  0  0  0
 20100  1  0  0  0  0
 21 22  1  0  0  0  0
 21101  1  0  0  0  0
 21102  1  0  0  0  0
 22 23  1  0  0  0  0
 22103  1  0  0  0  0
 22104  1  0  0  0  0
 23 24  1  0  0  0  0
 23105  1  0  0  0  0
 23106  1  0  0  0  0
 24 25  1  0  0  0  0
 24107  1  0  0  0  0
 24108  1  0  0  0  0
 25 26  1  0  0  0  0
 25109  1  0  0  0  0
 25110  1  0  0  0  0
 26 27  1  0  0  0  0
 26111  1  0  0  0  0
 26112  1  0  0  0  0
 27 28  1  0  0  0  0
 27113  1  0  0  0  0
 27114  1  0  0  0  0
 28 29  1  0  0  0  0
 28115  1  0  0  0  0
 28116  1  0  0  0  0
 29 30  1  0  0  0  0
 29117  1  0  0  0  0
 29118  1  0  0  0  0
 30 31  1  0  0  0  0
 30119  1  0  0  0  0
 30120  1  0  0  0  0
 31 32  1  0  0  0  0
 31121  1  0  0  0  0
 31122  1  0  0  0  0
 32 33  1  0  0  0  0
 32123  1  0  0  0  0
 32124  1  0  0  0  0
 33 34  1  0  0  0  0
 33125  1  0  0  0  0
 33126  1  0  0  0  0
 34 35  1  0  0  0  0
 34127  1  0  0  0  0
 34128  1  0  0  0  0
 35 36  1  0  0  0  0
 35129  1  0  0  0  0
 35130  1  0  0  0  0
 36 37  1  0  0  0  0
 36131  1  0  0  0  0
 36132  1  0  0  0  0
 37 38  1  0  0  0  0
 37133  1  0  0  0  0
 37134  1  0  0  0  0
 38 39  1  0  0  0  0
 38135  1  0  0  0  0
 38136  1  0  0  0  0
 39 40  1  0  0  0  0
 39137  1  0  0  0  0
 39138  1  0  0  0  0
 40 41  1  0  0  0  0
 40139  1  0  0  0  0
 40140  1  0  0  0  0
 41 42  1  0  0  0  0
 41141  1  0  0  0  0
 41142  1  0  0  0  0
 42 43  1  0  0  0  0
 42143  1  0  0  0  0
 42144  1  0  0  0  0
 43 44  1  0  0  0  0
 43145  1  0  0  0  0
 43146  1  0  0  0  0
 44 45  1  0  0  0  0
 44147  1  0  0  0  0
 44148  1  0  0  0  0
 45 46  1  0  0  0  0
 45149  1  0  0  0  0
 45150  1  0  0  0  0
 46 47  1  0  0  0  0
 46151  1  0  0  0  0
 46152  1  0  0  0  0
 47 48  1  0  0  0  0
 47153  1  0  0  0  0
 47154  1  0  0  0  0
 48 49  1  0  0  0  0
 48155  1  0  0  0  0
 48156  1  0  0  0  0
 49 50  1  0  0  0  0
 49157  1  0  0  0  0
 49158  1  0  0  0  0
 50 51  1  0  0  0  0
 50159  1  0  0  0  0
 50160  1  0  0  0  0
 51 52  1  0  0  0  0
 51161  1  0  0  0  0
 51162  1  0  0  0  0
 52 53  1  0  0  0  0
 52163  1  0  0  0  0
 52164  1  0  0  0  0
 53 54  1  0  0  0  0
 53165  1  0  0  0  0
 53166  1  0  0  0  0
 54 55  1  0  0  0  0
 54167  1  0  0  0  0
 54168  1  0  0  0  0
 55 56  1  0  0  0  0
 55169  1  0  0  0  0
 55170  1  0  0  0  0
 56 57  1  0  0  0  0
 56171  1  0  0  0  0
 56172  1  0  0  0  0
 57 58  1  0  0  0  0
 57173  1  0  0  0  0
 57174  1  0  0  0  0
 58 59  1  0  0  0  0
 58175  1  0  0  0  0
 58176  1  0  0  0  0
 59 60  1  0  0  0  0
 59177  1  0  0  0  0
 59178  1  0  0  0  0
 60 61  1  0  0  0  0
 60179  1  0  0  0  0
 60180  1  0  0  0  0
 61 62  1  0  0  0  0
 61181  1  0  0  0  0
 61182  1  0  0  0  0
 62 63  1  0  0  0  0
 62183  1  0  0  0  0
 62184  1  0  0  0  0
 63 64  1  0  0  0  0
 63185  1  0  0  0  0
 63186  1  0  0  0  0
 64 65  1  0  0  0  0
 64187  1  0  0  0  0
 64188  1  0  0  0  0
 65 66  1  0  0  0  0
 65189  1  0  0  0  0
 65190  1  0  0  0  0
 66 67  1  0  0  0  0
 66191  1  0  0  0  0
 66192  1  0  0  0  0
 67 68  1  0  0  0  0
 67193  1  0  0  0  0
 67194  1  0  0  0  0
 68 69  1  0  0  0  0
 68195  1  0  0  0  0
 68196  1  0  0  0  0
 69 70  1  0  0  0  0
 69197  1  0  0  0  0
 69198  1  0  0  0  0
 70 71  1  0  0  0  0
 70199  1  0  0  0  0
 70200  1  0  0  0  0
 71 72  1  0  0  0  0
 71201  1  0  0  0  0
 71202  1  0  0  0  0
 72 73  1  0  0  0  0
 72203  1  0  0  0  0
 72204  1  0  0  0  0
 73 74  1  0  0  0  0
 73205  1  0  0  0  0
 73206  1  0  0  0  0
 74 75  1  0  0  0  0
 74207  1  0  0  0  0
 74208  1  0  0  0  0
 75 76  1  0  0  0  0
 76 77  1  0  0  0  0
 76209  1  0  0  0  0
 76210  1  0  0  0  0
 77 78  1  0  0  0  0
 78 79  1  0  0  0  0
 78211  1  0  0  0  0
 78212  1  0  0  0  0
 79213  1  0  0  0  0
M  END
$$$$
