
 OpenBabel04232216393D

 16 16  0  0  0  0  0  0  0  0999 V2000
    5.3527   -0.4851    0.9120 C   0  0  0  0  0  0  0  0  0  0  0  0
    4.7706    0.7497    0.2322 C   0  0  0  0  0  0  0  0  0  0  0  0
    5.0948    0.8613   -1.2495 C   0  0  0  0  0  3  0  0  0  0  0  0
    4.4326   -0.1435   -2.0767 C   0  0  0  0  0  0  0  0  0  0  0  0
    5.1617   -1.2238   -2.4126 C   0  0  0  0  0  0  0  0  0  0  0  0
    4.7855   -2.5151   -1.8391 C   0  0  0  0  0  0  0  0  0  0  0  0
    4.9772   -2.7553   -0.5213 C   0  0  0  0  0  0  0  0  0  0  0  0
    5.2902   -1.6734    0.3604 C   0  0  0  0  0  3  0  0  0  0  0  0
    5.4935   -0.4271    1.9769 H   0  0  0  0  0  0  0  0  0  0  0  0
    5.1461    1.6418    0.7433 H   0  0  0  0  0  0  0  0  0  0  0  0
    3.6816    0.7416    0.3706 H   0  0  0  0  0  0  0  0  0  0  0  0
    6.1106    1.1541   -1.5030 H   0  0  0  0  0  0  0  0  0  0  0  0
    3.3687   -0.2545   -1.8755 H   0  0  0  0  0  0  0  0  0  0  0  0
    6.2493   -1.1314   -2.4900 H   0  0  0  0  0  0  0  0  0  0  0  0
    4.4034   -3.2776   -2.5023 H   0  0  0  0  0  0  0  0  0  0  0  0
    4.8125   -3.7404   -0.1035 H   0  0  0  0  0  0  0  0  0  0  0  0
  1  2  1  0  0  0  0
  1  8  2  0  0  0  0
  1  9  1  0  0  0  0
  2  3  1  0  0  0  0
  2 10  1  0  0  0  0
  2 11  1  0  0  0  0
  3  4  1  0  0  0  0
  3 12  1  0  0  0  0
  4  5  2  0  0  0  0
  4 13  1  0  0  0  0
  5  6  1  0  0  0  0
  5 14  1  0  0  0  0
  6  7  2  0  0  0  0
  6 15  1  0  0  0  0
  7  8  1  0  0  0  0
  7 16  1  0  0  0  0
M  END
$$$$
