
 OpenBabel04232216443D

 62 64  0  0  1  0  0  0  0  0999 V2000
   15.4018   -3.3002   -6.8428 C   0  0  0  0  0  0  0  0  0  0  0  0
   14.4060   -2.8794   -5.6760 C   0  0  0  0  0  0  0  0  0  0  0  0
   13.1248   -3.7994   -5.4197 C   0  0  0  0  0  0  0  0  0  0  0  0
   11.5008   -3.1264   -4.4054 C   0  0  0  0  0  0  0  0  0  0  0  0
    9.8556   -2.2030   -3.9163 C   0  0  0  0  0  0  0  0  0  0  0  0
    8.2509   -1.8679   -2.8378 C   0  0  0  0  0  0  0  0  0  0  0  0
    6.4274   -1.9376   -2.6940 C   0  0  0  0  0  0  0  0  0  0  0  0
    5.5015   -3.1334   -2.4448 N   0  0  0  0  0  0  0  0  0  0  0  0
    5.3587   -3.9837   -3.6342 C   0  0  0  0  0  0  0  0  0  0  0  0
    6.7749   -3.9836   -4.0813 C   0  0  0  0  0  0  0  0  0  0  0  0
    7.2487   -4.9260   -5.0638 C   0  0  0  0  0  0  0  0  0  0  0  0
    8.7473   -4.7074   -5.0467 C   0  0  0  0  0  0  0  0  0  0  0  0
    9.4016   -6.0256   -5.0121 C   0  0  3  0  0  0  0  0  0  0  0  0
   10.5684   -6.1613   -4.1116 C   0  0  0  0  0  0  0  0  0  0  0  0
   10.6751   -6.3504   -5.4067 C   0  0  0  0  0  0  0  0  0  0  0  0
   11.2548   -6.6176   -6.5837 C   0  0  0  0  0  0  0  0  0  0  0  0
   12.0674   -7.6637   -6.4957 C   0  0  0  0  0  0  0  0  0  0  0  0
   12.7010   -8.1471   -7.6517 C   0  0  0  0  0  0  0  0  0  0  0  0
   13.8985   -8.6389   -7.4096 C   0  0  0  0  0  0  0  0  0  0  0  0
   14.8656   -7.7887   -8.0232 C   0  0  0  0  0  0  0  0  0  0  0  0
   15.4183   -6.7604   -7.3114 C   0  0  0  0  0  0  0  0  0  0  0  0
   16.9830   -7.0401   -7.6345 C   0  0  0  0  0  0  0  0  0  0  0  0
   13.4716   -5.1684   -5.6418 N   0  0  0  0  0  0  0  0  0  0  0  0
   14.8703   -5.8988   -5.9231 C   0  0  0  0  0  0  0  0  0  0  0  0
   15.7782   -6.1549   -4.9888 C   0  0  0  0  0  0  0  0  0  0  0  0
   15.8547   -4.9964   -4.0984 C   0  0  0  0  0  0  0  0  0  0  0  0
   16.9082   -4.3099   -3.7652 N   0  0  0  0  0  0  0  0  0  0  0  0
   16.4850   -2.9966   -3.4327 N   0  0  0  0  0  0  0  0  0  0  0  0
   16.2442   -2.3182   -4.4821 N   0  0  0  0  0  0  0  0  0  0  0  0
   14.8220   -2.2119   -4.6360 N   0  0  0  0  0  0  0  0  0  0  0  0
   14.9201   -3.8371   -7.6670 H   0  0  0  0  0  0  0  0  0  0  0  0
   16.2042   -3.9476   -6.4663 H   0  0  0  0  0  0  0  0  0  0  0  0
   15.9575   -2.4565   -7.2618 H   0  0  0  0  0  0  0  0  0  0  0  0
   10.9477   -3.7162   -5.0675 H   0  0  0  0  0  0  0  0  0  0  0  0
   11.7627   -3.5672   -3.3885 H   0  0  0  0  0  0  0  0  0  0  0  0
    9.9317   -1.2625   -4.3881 H   0  0  0  0  0  0  0  0  0  0  0  0
   10.2846   -2.1977   -2.8935 H   0  0  0  0  0  0  0  0  0  0  0  0
    8.5419   -1.9080   -1.7818 H   0  0  0  0  0  0  0  0  0  0  0  0
    8.2257   -0.7768   -3.0418 H   0  0  0  0  0  0  0  0  0  0  0  0
    5.9512   -1.3887   -3.5193 H   0  0  0  0  0  0  0  0  0  0  0  0
    6.1659   -1.3167   -1.8207 H   0  0  0  0  0  0  0  0  0  0  0  0
    5.8590   -3.7022   -1.6710 H   0  0  0  0  0  0  0  0  0  0  0  0
    4.6972   -3.5400   -4.3851 H   0  0  0  0  0  0  0  0  0  0  0  0
    5.0021   -4.9815   -3.4168 H   0  0  0  0  0  0  0  0  0  0  0  0
    7.3704   -4.1654   -3.1464 H   0  0  0  0  0  0  0  0  0  0  0  0
    7.0108   -3.0131   -4.5158 H   0  0  0  0  0  0  0  0  0  0  0  0
    6.8696   -4.7057   -6.0544 H   0  0  0  0  0  0  0  0  0  0  0  0
    6.9812   -5.9577   -4.7411 H   0  0  0  0  0  0  0  0  0  0  0  0
    9.0522   -4.3072   -4.0404 H   0  0  0  0  0  0  0  0  0  0  0  0
    9.0597   -4.0023   -5.7795 H   0  0  0  0  0  0  0  0  0  0  0  0
    8.7491   -6.8366   -5.2906 H   0  0  0  0  0  0  0  0  0  0  0  0
   11.4404   -5.6871   -3.6715 H   0  0  0  0  0  0  0  0  0  0  0  0
   10.9932   -6.1377   -7.5234 H   0  0  0  0  0  0  0  0  0  0  0  0
   12.4006   -8.0023   -5.5067 H   0  0  0  0  0  0  0  0  0  0  0  0
   12.5121   -7.5875   -8.5750 H   0  0  0  0  0  0  0  0  0  0  0  0
   14.2183   -9.0598   -6.4599 H   0  0  0  0  0  0  0  0  0  0  0  0
   15.3135   -8.2558   -8.8765 H   0  0  0  0  0  0  0  0  0  0  0  0
   17.1246   -7.8384   -8.4033 H   0  0  0  0  0  0  0  0  0  0  0  0
   17.5200   -7.5102   -6.7949 H   0  0  0  0  0  0  0  0  0  0  0  0
   17.5456   -6.2093   -8.0601 H   0  0  0  0  0  0  0  0  0  0  0  0
   16.6589   -6.8036   -5.0139 H   0  0  0  0  0  0  0  0  0  0  0  0
   14.8805   -4.4883   -3.9732 H   0  0  0  0  0  0  0  0  0  0  0  0
  1  2  1  0  0  0  0
  1 31  1  0  0  0  0
  1 32  1  0  0  0  0
  1 33  1  0  0  0  0
  2  3  1  0  0  0  0
  2 30  2  0  0  0  0
  3  4  1  0  0  0  0
  3 23  2  0  0  0  0
  4  5  1  0  0  0  0
  4 34  1  0  0  0  0
  4 35  1  0  0  0  0
  5  6  1  0  0  0  0
  5 36  1  0  0  0  0
  5 37  1  0  0  0  0
  6  7  1  0  0  0  0
  6 38  1  0  0  0  0
  6 39  1  0  0  0  0
  7  8  1  0  0  0  0
  7 40  1  0  0  0  0
  7 41  1  0  0  0  0
  8  9  1  0  0  0  0
  8 42  1  0  0  0  0
  9 10  1  0  0  0  0
  9 43  1  0  0  0  0
  9 44  1  0  0  0  0
 10 11  1  0  0  0  0
 10 45  1  0  0  0  0
 10 46  1  0  0  0  0
 11 12  1  0  0  0  0
 11 47  1  0  0  0  0
 11 48  1  0  0  0  0
 12 13  1  0  0  0  0
 12 49  1  0  0  0  0
 12 50  1  0  0  0  0
 13 14  1  0  0  0  0
 13 15  1  0  0  0  0
 13 51  1  0  0  0  0
 14 15  2  0  0  0  0
 14 52  1  0  0  0  0
 15 16  1  0  0  0  0
 16 17  2  3  0  0  0
 16 53  1  0  0  0  0
 17 18  1  0  0  0  0
 17 54  1  0  0  0  0
 18 19  2  3  0  0  0
 18 55  1  0  0  0  0
 19 20  1  0  0  0  0
 19 56  1  0  0  0  0
 20 21  2  3  0  0  0
 20 57  1  0  0  0  0
 21 22  1  0  0  0  0
 21 24  1  0  0  0  0
 22 58  1  0  0  0  0
 22 59  1  0  0  0  0
 22 60  1  0  0  0  0
 23 24  1  0  0  0  0
 24 25  2  0  0  0  0
 25 26  1  0  0  0  0
 25 61  1  0  0  0  0
 26 27  2  0  0  0  0
 26 62  1  0  0  0  0
 27 28  1  0  0  0  0
 28 29  2  0  0  0  0
 29 30  1  0  0  0  0
M  END
$$$$
