
 OpenBabel04232216503D

 58 59  0  0  0  0  0  0  0  0999 V2000
    5.7861    3.4283   -1.9194 C   0  0  0  0  0  0  0  0  0  0  0  0
    4.4754    2.6496   -1.8195 C   0  0  0  0  0  0  0  0  0  0  0  0
    3.7840    1.9609   -0.9650 N   0  0  0  0  0  0  0  0  0  0  0  0
    3.1461    1.3031   -0.0850 C   0  0  0  0  0  0  0  0  0  0  0  0
    3.6681    1.0710    1.2387 C   0  0  0  0  0  0  0  0  0  0  0  0
    4.4876   -0.1939    1.2326 C   0  0  0  0  0  0  0  0  0  0  0  0
    5.1046   -0.3477    2.5885 C   0  0  0  0  0  0  0  0  0  0  0  0
    4.0794   -0.5072    3.6998 C   0  0  0  0  0  0  0  0  0  0  0  0
    4.8237   -0.6961    5.0041 C   0  0  0  0  0  0  0  0  0  0  0  0
    3.8399   -0.8641    6.1431 C   0  0  0  0  0  0  0  0  0  0  0  0
    4.5962   -1.0557    7.4434 C   0  0  0  0  0  0  0  0  0  0  0  0
    3.6152   -1.2262    8.5868 C   0  0  0  0  0  0  0  0  0  0  0  0
    4.3719   -1.4201    9.8879 C   0  0  0  0  0  0  0  0  0  0  0  0
    3.3914   -1.5909   11.0334 C   0  0  0  0  0  0  0  0  0  0  0  0
    4.1418   -1.7838   12.3409 C   0  0  0  0  0  0  0  0  0  0  0  0
    3.1605   -1.9536   13.4805 C   0  0  0  0  0  0  0  0  0  0  0  0
    1.8497    0.7019   -0.4116 C   0  0  0  0  0  0  0  0  0  0  0  0
    1.0252   -0.0893    0.3844 C   0  0  0  0  0  0  0  0  0  0  0  0
    0.1824   -0.2230   -0.6686 C   0  0  0  0  0  0  0  0  0  0  0  0
    1.1115    0.5991   -1.5219 C   0  0  0  0  0  0  0  0  0  0  0  0
    1.6276    1.3542   -2.9360 C   0  0  0  0  0  0  0  0  0  0  0  0
    2.6582    2.1335   -3.4930 C   0  0  0  0  0  0  0  0  0  0  0  0
    2.6229    2.5895   -4.9452 C   0  0  0  0  0  0  0  0  0  0  0  0
    3.9032    2.6725   -2.9640 N   0  0  0  0  0  0  0  0  0  0  0  0
    5.6869    3.7231   -2.9962 H   0  0  0  0  0  0  0  0  0  0  0  0
    6.7351    2.8821   -1.9480 H   0  0  0  0  0  0  0  0  0  0  0  0
    5.8488    4.4133   -1.4465 H   0  0  0  0  0  0  0  0  0  0  0  0
    2.8187    0.9914    1.9170 H   0  0  0  0  0  0  0  0  0  0  0  0
    4.2585    1.9588    1.4450 H   0  0  0  0  0  0  0  0  0  0  0  0
    5.2945   -0.1275    0.4923 H   0  0  0  0  0  0  0  0  0  0  0  0
    3.8986   -1.0926    0.9938 H   0  0  0  0  0  0  0  0  0  0  0  0
    5.7295    0.5314    2.7811 H   0  0  0  0  0  0  0  0  0  0  0  0
    5.7398   -1.2300    2.5374 H   0  0  0  0  0  0  0  0  0  0  0  0
    3.4274   -1.3678    3.5034 H   0  0  0  0  0  0  0  0  0  0  0  0
    3.4311    0.3745    3.7853 H   0  0  0  0  0  0  0  0  0  0  0  0
    5.4706    0.1709    5.1919 H   0  0  0  0  0  0  0  0  0  0  0  0
    5.4734   -1.5764    4.9340 H   0  0  0  0  0  0  0  0  0  0  0  0
    3.1926   -1.7291    5.9533 H   0  0  0  0  0  0  0  0  0  0  0  0
    3.1909    0.0177    6.2119 H   0  0  0  0  0  0  0  0  0  0  0  0
    5.2443   -0.1906    7.6307 H   0  0  0  0  0  0  0  0  0  0  0  0
    5.2461   -1.9367    7.3720 H   0  0  0  0  0  0  0  0  0  0  0  0
    2.9663   -2.0901    8.3968 H   0  0  0  0  0  0  0  0  0  0  0  0
    2.9663   -0.3443    8.6570 H   0  0  0  0  0  0  0  0  0  0  0  0
    5.0205   -0.5556   10.0753 H   0  0  0  0  0  0  0  0  0  0  0  0
    5.0205   -2.3018    9.8151 H   0  0  0  0  0  0  0  0  0  0  0  0
    2.7438   -2.4555   10.8418 H   0  0  0  0  0  0  0  0  0  0  0  0
    2.7419   -0.7091   11.1005 H   0  0  0  0  0  0  0  0  0  0  0  0
    4.7857   -0.9179   12.5341 H   0  0  0  0  0  0  0  0  0  0  0  0
    4.7875   -2.6671   12.2750 H   0  0  0  0  0  0  0  0  0  0  0  0
    2.5205   -1.0700   13.5695 H   0  0  0  0  0  0  0  0  0  0  0  0
    3.6966   -2.0925   14.4221 H   0  0  0  0  0  0  0  0  0  0  0  0
    2.5223   -2.8264   13.3093 H   0  0  0  0  0  0  0  0  0  0  0  0
    1.2253   -0.3210    1.4374 H   0  0  0  0  0  0  0  0  0  0  0  0
   -0.7386   -0.8326   -0.4416 H   0  0  0  0  0  0  0  0  0  0  0  0
    2.3227    1.5075   -2.1773 H   0  0  0  0  0  0  0  0  0  0  0  0
    1.8046    2.3371   -5.6206 H   0  0  0  0  0  0  0  0  0  0  0  0
    3.5032    2.1674   -5.4574 H   0  0  0  0  0  0  0  0  0  0  0  0
    2.6211    3.6917   -4.9579 H   0  0  0  0  0  0  0  0  0  0  0  0
  1  2  1  0  0  0  0
  1 25  1  0  0  0  0
  1 26  1  0  0  0  0
  1 27  1  0  0  0  0
  2  3  1  0  0  0  0
  2 24  2  0  0  0  0
  3  4  2  0  0  0  0
  4  5  1  0  0  0  0
  4 17  1  0  0  0  0
  5  6  1  0  0  0  0
  5 28  1  0  0  0  0
  5 29  1  0  0  0  0
  6  7  1  0  0  0  0
  6 30  1  0  0  0  0
  6 31  1  0  0  0  0
  7  8  1  0  0  0  0
  7 32  1  0  0  0  0
  7 33  1  0  0  0  0
  8  9  1  0  0  0  0
  8 34  1  0  0  0  0
  8 35  1  0  0  0  0
  9 10  1  0  0  0  0
  9 36  1  0  0  0  0
  9 37  1  0  0  0  0
 10 11  1  0  0  0  0
 10 38  1  0  0  0  0
 10 39  1  0  0  0  0
 11 12  1  0  0  0  0
 11 40  1  0  0  0  0
 11 41  1  0  0  0  0
 12 13  1  0  0  0  0
 12 42  1  0  0  0  0
 12 43  1  0  0  0  0
 13 14  1  0  0  0  0
 13 44  1  0  0  0  0
 13 45  1  0  0  0  0
 14 15  1  0  0  0  0
 14 46  1  0  0  0  0
 14 47  1  0  0  0  0
 15 16  1  0  0  0  0
 15 48  1  0  0  0  0
 15 49  1  0  0  0  0
 16 50  1  0  0  0  0
 16 51  1  0  0  0  0
 16 52  1  0  0  0  0
 17 18  1  0  0  0  0
 17 20  2  0  0  0  0
 18 19  2  0  0  0  0
 18 53  1  0  0  0  0
 19 20  1  0  0  0  0
 19 54  1  0  0  0  0
 20 21  1  0  0  0  0
 21 22  2  0  0  0  0
 21 55  1  0  0  0  0
 22 23  1  0  0  0  0
 22 24  1  0  0  0  0
 23 56  1  0  0  0  0
 23 57  1  0  0  0  0
 23 58  1  0  0  0  0
M  END
$$$$
