
 OpenBabel04232216523D

 53 54  0  0  0  0  0  0  0  0999 V2000
    3.1497   -2.2624    2.4313 C   0  0  0  0  0  0  0  0  0  0  0  0
    3.6849   -1.3129    1.3794 C   0  0  0  0  0  0  0  0  0  0  0  0
    4.2236    0.0442    1.8593 C   0  0  0  0  0  0  0  0  0  0  0  0
    5.3737    0.4017    2.8293 C   0  0  0  0  0  0  0  0  0  0  0  0
    5.3470    1.8663    2.9747 C   0  0  0  0  0  0  0  0  0  0  0  0
    4.6032    2.3127    4.2229 C   0  0  0  0  0  0  0  0  0  0  0  0
    3.9262    3.6791    4.1739 C   0  0  0  0  0  0  0  0  0  0  0  0
    2.9312    3.7395    3.1582 O   0  0  0  0  0  0  0  0  0  0  0  0
    6.2129    2.5268    2.1641 C   0  0  0  0  0  0  0  0  0  0  0  0
    7.3918    3.0430    2.8436 C   0  0  0  0  0  0  0  0  0  0  0  0
    8.4899    2.2312    2.9286 C   0  0  0  0  0  0  0  0  0  0  0  0
    9.0156    1.2932    1.9246 C   0  0  0  0  0  0  0  0  0  0  0  0
    8.7876    1.3770    0.7291 O   0  0  0  0  0  0  0  0  0  0  0  0
    8.9094    1.9107    4.2935 C   0  0  0  0  0  0  0  0  0  0  0  0
    7.9376    1.1984    5.1604 C   0  0  0  0  0  0  0  0  0  0  0  0
    7.7422    1.6438    6.4794 N   0  0  0  0  0  0  0  0  0  0  0  0
    8.1395    2.8112    7.2701 C   0  0  0  0  0  0  0  0  0  0  0  0
    8.1796    4.2093    6.6418 C   0  0  0  0  0  0  0  0  0  0  0  0
    9.4832    4.7302    6.0144 C   0  0  0  0  0  0  0  0  0  0  0  0
   10.7912    3.9981    6.3709 C   0  0  0  0  0  0  0  0  0  0  0  0
   10.8576    2.5225    5.9171 C   0  0  0  0  0  0  0  0  0  0  0  0
   10.1433    2.3821    4.5969 C   0  0  0  0  0  0  0  0  0  0  0  0
    7.0948    0.1929    4.7399 C   0  0  0  0  0  0  0  0  0  0  0  0
    6.3454   -0.2916    3.5013 C   0  0  0  0  0  0  0  0  0  0  0  0
    2.6983   -3.1365    1.9330 H   0  0  0  0  0  0  0  0  0  0  0  0
    2.3603   -1.8010    3.0325 H   0  0  0  0  0  0  0  0  0  0  0  0
    3.9412   -2.6237    3.0840 H   0  0  0  0  0  0  0  0  0  0  0  0
    2.8307   -1.0815    0.7237 H   0  0  0  0  0  0  0  0  0  0  0  0
    4.4149   -1.8167    0.7371 H   0  0  0  0  0  0  0  0  0  0  0  0
    3.3273    0.5445    2.2675 H   0  0  0  0  0  0  0  0  0  0  0  0
    4.4365    0.5852    0.9238 H   0  0  0  0  0  0  0  0  0  0  0  0
    5.2609    2.2743    5.0958 H   0  0  0  0  0  0  0  0  0  0  0  0
    3.8013    1.5833    4.4131 H   0  0  0  0  0  0  0  0  0  0  0  0
    4.6392    4.4920    4.0338 H   0  0  0  0  0  0  0  0  0  0  0  0
    3.4101    3.8435    5.1283 H   0  0  0  0  0  0  0  0  0  0  0  0
    3.3999    3.7178    2.3049 H   0  0  0  0  0  0  0  0  0  0  0  0
    6.5115    2.0231    1.2368 H   0  0  0  0  0  0  0  0  0  0  0  0
    7.1468    3.6550    3.7113 H   0  0  0  0  0  0  0  0  0  0  0  0
    9.6949    0.4999    2.3182 H   0  0  0  0  0  0  0  0  0  0  0  0
    6.8654    1.2655    6.8385 H   0  0  0  0  0  0  0  0  0  0  0  0
    9.0401    2.5951    7.8458 H   0  0  0  0  0  0  0  0  0  0  0  0
    7.3714    2.8895    8.0551 H   0  0  0  0  0  0  0  0  0  0  0  0
    7.9757    4.9128    7.4644 H   0  0  0  0  0  0  0  0  0  0  0  0
    7.3488    4.3571    5.9432 H   0  0  0  0  0  0  0  0  0  0  0  0
    9.5994    5.7906    6.2834 H   0  0  0  0  0  0  0  0  0  0  0  0
    9.3674    4.7633    4.9236 H   0  0  0  0  0  0  0  0  0  0  0  0
   10.9788    4.0813    7.4516 H   0  0  0  0  0  0  0  0  0  0  0  0
   11.6105    4.5534    5.8931 H   0  0  0  0  0  0  0  0  0  0  0  0
   10.4976    1.8445    6.6755 H   0  0  0  0  0  0  0  0  0  0  0  0
   11.9175    2.2641    5.7903 H   0  0  0  0  0  0  0  0  0  0  0  0
   10.7064    2.8680    3.7854 H   0  0  0  0  0  0  0  0  0  0  0  0
    6.8111   -0.4852    5.5436 H   0  0  0  0  0  0  0  0  0  0  0  0
    6.3769   -1.3730    3.3692 H   0  0  0  0  0  0  0  0  0  0  0  0
  1  2  1  0  0  0  0
  1 25  1  0  0  0  0
  1 26  1  0  0  0  0
  1 27  1  0  0  0  0
  2  3  1  0  0  0  0
  2 28  1  0  0  0  0
  2 29  1  0  0  0  0
  3  4  1  0  0  0  0
  3 30  1  0  0  0  0
  3 31  1  0  0  0  0
  4  5  1  0  0  0  0
  4 24  2  3  0  0  0
  5  6  1  0  0  0  0
  5  9  2  3  0  0  0
  6  7  1  0  0  0  0
  6 32  1  0  0  0  0
  6 33  1  0  0  0  0
  7  8  1  0  0  0  0
  7 34  1  0  0  0  0
  7 35  1  0  0  0  0
  8 36  1  0  0  0  0
  9 10  1  0  0  0  0
  9 37  1  0  0  0  0
 10 11  2  3  0  0  0
 10 38  1  0  0  0  0
 11 12  1  0  0  0  0
 11 14  1  0  0  0  0
 12 13  2  0  0  0  0
 12 39  1  0  0  0  0
 14 15  1  0  0  0  0
 14 22  2  3  0  0  0
 15 16  1  0  0  0  0
 15 23  2  3  0  0  0
 16 17  1  0  0  0  0
 16 40  1  0  0  0  0
 17 18  1  0  0  0  0
 17 41  1  0  0  0  0
 17 42  1  0  0  0  0
 18 19  1  0  0  0  0
 18 43  1  0  0  0  0
 18 44  1  0  0  0  0
 19 20  1  0  0  0  0
 19 45  1  0  0  0  0
 19 46  1  0  0  0  0
 20 21  1  0  0  0  0
 20 47  1  0  0  0  0
 20 48  1  0  0  0  0
 21 22  1  0  0  0  0
 21 49  1  0  0  0  0
 21 50  1  0  0  0  0
 22 51  1  0  0  0  0
 23 24  1  0  0  0  0
 23 52  1  0  0  0  0
 24 53  1  0  0  0  0
M  END
$$$$
