
 OpenBabel04232216443D

 56 57  0  0  0  0  0  0  0  0999 V2000
    5.0345   -2.7046    0.6110 C   0  0  0  0  0  0  0  0  0  0  0  0
    6.1975   -2.4280    1.6101 C   0  0  0  0  0  0  0  0  0  0  0  0
    6.0837   -0.8877    2.0652 C   0  0  0  0  0  0  0  0  0  0  0  0
    4.6403   -0.7609    2.6474 C   0  0  0  0  0  0  0  0  0  0  0  0
    6.7547    0.2271    1.4537 C   0  0  0  0  0  0  0  0  0  0  0  0
    5.9164    0.7064    0.2507 C   0  0  0  0  0  0  0  0  0  0  0  0
    6.1745    1.8535   -0.7001 C   0  0  0  0  0  0  0  0  0  0  0  0
    8.3766    0.4230    1.6529 C   0  0  0  0  0  0  0  0  0  0  0  0
    9.8259    0.9982    1.1020 C   0  0  0  0  0  0  0  0  0  0  0  0
   11.3864    0.1197    1.3098 C   0  0  0  0  0  0  0  0  0  0  0  0
   12.6271   -0.8244    2.0045 C   0  0  0  0  0  0  0  0  0  0  0  0
   11.9712   -2.0903    2.5812 C   0  0  0  0  0  0  0  0  0  0  0  0
   12.2189   -3.3381    3.4819 C   0  0  0  0  0  0  0  0  0  0  0  0
    8.7531   -0.8464    1.7916 C   0  0  0  0  0  0  0  0  0  0  0  0
    8.6744   -1.3549    0.3055 C   0  0  0  0  0  0  0  0  0  0  0  0
    8.5109   -1.2934    3.1457 C   0  0  0  0  0  0  0  0  0  0  0  0
    9.0881   -0.9094    4.3222 C   0  0  0  0  0  0  0  0  0  0  0  0
    8.9858   -1.8591    5.4277 C   0  0  0  0  0  0  0  0  0  0  0  0
   10.1494   -2.4706    5.7293 C   0  0  0  0  0  0  0  0  0  0  0  0
   10.3663   -3.8163    5.1350 C   0  0  0  0  0  0  0  0  0  0  0  0
   10.6972   -3.8415    3.8106 C   0  0  0  0  0  0  0  0  0  0  0  0
    9.7921   -3.9295    2.5884 C   0  0  0  0  0  0  0  0  0  0  0  0
    8.5899   -3.7950    1.9282 C   0  0  0  0  0  0  0  0  0  0  0  0
    7.1289   -3.4871    1.7017 C   0  0  0  0  0  0  0  0  0  0  0  0
    4.2847   -3.3755    1.0333 H   0  0  0  0  0  0  0  0  0  0  0  0
    5.4110   -3.1219   -0.3276 H   0  0  0  0  0  0  0  0  0  0  0  0
    4.5049   -1.7904    0.3016 H   0  0  0  0  0  0  0  0  0  0  0  0
    3.9306   -0.2455    1.9928 H   0  0  0  0  0  0  0  0  0  0  0  0
    4.6458   -0.2593    3.6201 H   0  0  0  0  0  0  0  0  0  0  0  0
    4.1864   -1.7455    2.8472 H   0  0  0  0  0  0  0  0  0  0  0  0
    4.8841    0.8767    0.5894 H   0  0  0  0  0  0  0  0  0  0  0  0
    5.8506   -0.1702   -0.4106 H   0  0  0  0  0  0  0  0  0  0  0  0
    5.7564    2.7927   -0.3249 H   0  0  0  0  0  0  0  0  0  0  0  0
    5.6213    1.6426   -1.6334 H   0  0  0  0  0  0  0  0  0  0  0  0
    7.2264    1.9690   -0.9573 H   0  0  0  0  0  0  0  0  0  0  0  0
   10.0234    1.9875    1.5267 H   0  0  0  0  0  0  0  0  0  0  0  0
    9.7715    1.1185    0.0114 H   0  0  0  0  0  0  0  0  0  0  0  0
   11.0227   -0.7590    0.7713 H   0  0  0  0  0  0  0  0  0  0  0  0
   11.1457    0.2799    2.3716 H   0  0  0  0  0  0  0  0  0  0  0  0
   13.2316   -0.2465    2.7159 H   0  0  0  0  0  0  0  0  0  0  0  0
   13.3274   -1.1142    1.2010 H   0  0  0  0  0  0  0  0  0  0  0  0
   11.6823   -2.5612    1.6485 H   0  0  0  0  0  0  0  0  0  0  0  0
   11.1727   -1.6248    3.1245 H   0  0  0  0  0  0  0  0  0  0  0  0
   12.7692   -3.0809    4.3915 H   0  0  0  0  0  0  0  0  0  0  0  0
   12.7878   -4.1295    2.9740 H   0  0  0  0  0  0  0  0  0  0  0  0
    7.7491   -1.8928    0.0253 H   0  0  0  0  0  0  0  0  0  0  0  0
    9.5109   -1.9714    0.0082 H   0  0  0  0  0  0  0  0  0  0  0  0
    8.6201   -0.5598   -0.4239 H   0  0  0  0  0  0  0  0  0  0  0  0
    7.7825   -2.0608    3.3435 H   0  0  0  0  0  0  0  0  0  0  0  0
    9.8188   -0.1141    4.3440 H   0  0  0  0  0  0  0  0  0  0  0  0
    8.1096   -2.5109    5.3813 H   0  0  0  0  0  0  0  0  0  0  0  0
   11.0793   -1.8684    5.7411 H   0  0  0  0  0  0  0  0  0  0  0  0
   11.1801   -4.1776    5.7837 H   0  0  0  0  0  0  0  0  0  0  0  0
   10.5425   -4.1769    1.8065 H   0  0  0  0  0  0  0  0  0  0  0  0
    8.8572   -3.9654    0.8599 H   0  0  0  0  0  0  0  0  0  0  0  0
    6.7699   -4.3532    1.1215 H   0  0  0  0  0  0  0  0  0  0  0  0
  1  2  1  0  0  0  0
  1 25  1  0  0  0  0
  1 26  1  0  0  0  0
  1 27  1  0  0  0  0
  2  3  1  0  0  0  0
  2 24  2  0  0  0  0
  3  4  1  0  0  0  0
  3  5  2  0  0  0  0
  4 28  1  0  0  0  0
  4 29  1  0  0  0  0
  4 30  1  0  0  0  0
  5  6  1  0  0  0  0
  5  8  1  0  0  0  0
  6  7  1  0  0  0  0
  6 31  1  0  0  0  0
  6 32  1  0  0  0  0
  7 33  1  0  0  0  0
  7 34  1  0  0  0  0
  7 35  1  0  0  0  0
  8  9  1  0  0  0  0
  8 14  2  0  0  0  0
  9 10  1  0  0  0  0
  9 36  1  0  0  0  0
  9 37  1  0  0  0  0
 10 11  1  0  0  0  0
 10 38  1  0  0  0  0
 10 39  1  0  0  0  0
 11 12  1  0  0  0  0
 11 40  1  0  0  0  0
 11 41  1  0  0  0  0
 12 13  1  0  0  0  0
 12 42  1  0  0  0  0
 12 43  1  0  0  0  0
 13 21  1  0  0  0  0
 13 44  1  0  0  0  0
 13 45  1  0  0  0  0
 14 15  1  0  0  0  0
 14 16  1  0  0  0  0
 15 46  1  0  0  0  0
 15 47  1  0  0  0  0
 15 48  1  0  0  0  0
 16 17  2  0  0  0  0
 16 49  1  0  0  0  0
 17 18  1  0  0  0  0
 17 50  1  0  0  0  0
 18 19  2  0  0  0  0
 18 51  1  0  0  0  0
 19 20  1  0  0  0  0
 19 52  1  0  0  0  0
 20 21  2  0  0  0  0
 20 53  1  0  0  0  0
 21 22  1  0  0  0  0
 22 23  2  0  0  0  0
 22 54  1  0  0  0  0
 23 24  1  0  0  0  0
 23 55  1  0  0  0  0
 24 56  1  0  0  0  0
M  END
$$$$
