
 OpenBabel04232216453D

 49 50  0  0  1  0  0  0  0  0999 V2000
    2.9536    6.0901    1.0247 C   0  0  0  0  0  0  0  0  0  0  0  0
    4.3003    5.6304    0.4682 C   0  0  0  0  0  0  0  0  0  0  0  0
    5.3695    6.6752    0.7002 C   0  0  0  0  0  0  0  0  0  0  0  0
    6.1227    7.1585   -0.2986 C   0  0  0  0  0  0  0  0  0  0  0  0
    7.2671    8.1068   -0.0527 C   0  0  0  0  0  0  0  0  0  0  0  0
    6.0856    6.5542   -1.6869 C   0  0  0  0  0  0  0  0  0  0  0  0
    7.0605    5.3716   -1.6617 C   0  0  3  0  0  0  0  0  0  0  0  0
    7.0346    4.5017   -2.9337 C   0  0  0  0  0  0  0  0  0  0  0  0
    7.6316    5.1989   -4.1395 C   0  0  0  0  0  0  0  0  0  0  0  0
    6.8095    4.5607   -0.4271 N   0  0  0  0  0  0  0  0  0  0  0  0
    7.9799    4.0290    0.0242 N   0  0  0  0  0  0  0  0  0  0  0  0
    8.0576    2.7406   -0.0986 C   0  0  0  0  0  0  0  0  0  0  0  0
    9.4800    2.2500    0.1916 C   0  0  0  0  0  0  0  0  0  0  0  0
    9.7328    2.0263    1.6690 C   0  0  0  0  0  0  0  0  0  0  0  0
    7.0104    1.9187   -0.5348 N   0  0  0  0  0  0  0  0  0  0  0  0
    7.1618    0.4711   -0.5873 C   0  0  0  0  0  0  0  0  0  0  0  0
    5.7157    2.5384   -0.7264 C   0  0  0  0  0  0  0  0  0  0  0  0
    4.7131    1.7656   -1.5788 C   0  0  0  0  0  0  0  0  0  0  0  0
    3.6463    2.5353   -2.3590 C   0  0  0  0  0  0  0  0  0  0  0  0
    5.5837    3.8615   -0.3799 C   0  0  0  0  0  0  0  0  0  0  0  0
    4.3501    4.4449   -0.0909 N   0  0  0  0  0  0  0  0  0  0  0  0
    3.0345    7.1117    1.4176 H   0  0  0  0  0  0  0  0  0  0  0  0
    2.6616    5.4400    1.8525 H   0  0  0  0  0  0  0  0  0  0  0  0
    2.1937    6.0797    0.2448 H   0  0  0  0  0  0  0  0  0  0  0  0
    5.4877    7.0065    1.7217 H   0  0  0  0  0  0  0  0  0  0  0  0
    7.1767    8.6220    0.9128 H   0  0  0  0  0  0  0  0  0  0  0  0
    7.3067    8.8660   -0.8394 H   0  0  0  0  0  0  0  0  0  0  0  0
    8.2230    7.5754   -0.0578 H   0  0  0  0  0  0  0  0  0  0  0  0
    6.3729    7.2908   -2.4453 H   0  0  0  0  0  0  0  0  0  0  0  0
    5.0711    6.2358   -1.9535 H   0  0  0  0  0  0  0  0  0  0  0  0
    8.0771    5.7796   -1.5788 H   0  0  0  0  0  0  0  0  0  0  0  0
    6.0125    4.1961   -3.1800 H   0  0  0  0  0  0  0  0  0  0  0  0
    7.6055    3.5788   -2.7728 H   0  0  0  0  0  0  0  0  0  0  0  0
    7.0654    6.0960   -4.4005 H   0  0  0  0  0  0  0  0  0  0  0  0
    7.6201    4.5255   -5.0021 H   0  0  0  0  0  0  0  0  0  0  0  0
    8.6705    5.4799   -3.9424 H   0  0  0  0  0  0  0  0  0  0  0  0
   10.1554    3.0528   -0.1399 H   0  0  0  0  0  0  0  0  0  0  0  0
    9.7371    1.3788   -0.4109 H   0  0  0  0  0  0  0  0  0  0  0  0
    9.3050    2.8251    2.2845 H   0  0  0  0  0  0  0  0  0  0  0  0
   10.8109    1.9971    1.8591 H   0  0  0  0  0  0  0  0  0  0  0  0
    9.3010    1.0774    1.9981 H   0  0  0  0  0  0  0  0  0  0  0  0
    6.3375   -0.0256   -0.0617 H   0  0  0  0  0  0  0  0  0  0  0  0
    8.0756    0.1159   -0.1080 H   0  0  0  0  0  0  0  0  0  0  0  0
    7.1773    0.1257   -1.6271 H   0  0  0  0  0  0  0  0  0  0  0  0
    4.2576    0.9472   -1.0147 H   0  0  0  0  0  0  0  0  0  0  0  0
    5.3089    1.2947   -2.3748 H   0  0  0  0  0  0  0  0  0  0  0  0
    2.7946    2.7958   -1.7197 H   0  0  0  0  0  0  0  0  0  0  0  0
    3.2599    1.9092   -3.1749 H   0  0  0  0  0  0  0  0  0  0  0  0
    4.0274    3.4466   -2.8189 H   0  0  0  0  0  0  0  0  0  0  0  0
  1  2  1  0  0  0  0
  1 22  1  0  0  0  0
  1 23  1  0  0  0  0
  1 24  1  0  0  0  0
  2  3  1  0  0  0  0
  2 21  2  0  0  0  0
  3  4  2  0  0  0  0
  3 25  1  0  0  0  0
  4  5  1  0  0  0  0
  4  6  1  0  0  0  0
  5 26  1  0  0  0  0
  5 27  1  0  0  0  0
  5 28  1  0  0  0  0
  6  7  1  0  0  0  0
  6 29  1  0  0  0  0
  6 30  1  0  0  0  0
  7  8  1  0  0  0  0
  7 10  1  0  0  0  0
  7 31  1  0  0  0  0
  8  9  1  0  0  0  0
  8 32  1  0  0  0  0
  8 33  1  0  0  0  0
  9 34  1  0  0  0  0
  9 35  1  0  0  0  0
  9 36  1  0  0  0  0
 10 11  1  0  0  0  0
 10 20  1  0  0  0  0
 11 12  2  0  0  0  0
 12 13  1  0  0  0  0
 12 15  1  0  0  0  0
 13 14  1  0  0  0  0
 13 37  1  0  0  0  0
 13 38  1  0  0  0  0
 14 39  1  0  0  0  0
 14 40  1  0  0  0  0
 14 41  1  0  0  0  0
 15 16  1  0  0  0  0
 15 17  1  0  0  0  0
 16 42  1  0  0  0  0
 16 43  1  0  0  0  0
 16 44  1  0  0  0  0
 17 18  1  0  0  0  0
 17 20  2  0  0  0  0
 18 19  1  0  0  0  0
 18 45  1  0  0  0  0
 18 46  1  0  0  0  0
 19 47  1  0  0  0  0
 19 48  1  0  0  0  0
 19 49  1  0  0  0  0
 20 21  1  0  0  0  0
M  END
$$$$
