
 OpenBabel04232216563D

141140  0  0  0  0  0  0  0  0999 V2000
   28.4172  -44.9678   18.2120 C   0  0  0  0  0  0  0  0  0  0  0  0
   27.8405  -43.6754   17.8721 N   0  0  0  0  0  0  0  0  0  0  0  0
   28.4608  -42.6164   18.6699 C   0  0  0  0  0  0  0  0  0  0  0  0
   27.8844  -41.2502   18.3000 C   0  0  0  0  0  0  0  0  0  0  0  0
   28.5570  -40.1490   19.1226 C   0  0  0  0  0  0  0  0  0  0  0  0
   28.0458  -38.8546   18.6946 N   0  0  0  0  0  0  0  0  0  0  0  0
   28.6052  -37.8672   19.5267 N   0  0  0  0  0  0  0  0  0  0  0  0
   27.8327  -36.7022   19.4097 N   0  0  0  0  0  0  0  0  0  0  0  0
   28.4716  -35.6312   20.0847 N   0  0  0  0  0  0  0  0  0  0  0  0
   29.8532  -35.3767   19.7021 N   0  0  0  0  0  0  0  0  0  0  0  0
   30.1552  -35.0471   18.3529 N   0  0  0  0  0  0  0  0  0  0  0  0
   29.6112  -33.7895   17.9410 N   0  0  0  0  0  0  0  0  0  0  0  0
   30.2226  -32.7104   18.6667 N   0  0  0  0  0  0  0  0  0  0  0  0
   31.6259  -32.7628   18.5061 N   0  0  0  0  0  0  0  0  0  0  0  0
   31.9564  -32.5815   17.1346 N   0  0  0  0  0  0  0  0  0  0  0  0
   31.4717  -31.3272   16.6292 N   0  0  0  0  0  0  0  0  0  0  0  0
   32.0132  -30.1840   17.3093 N   0  0  0  0  0  0  0  0  0  0  0  0
   33.4487  -30.1739   17.1781 N   0  0  0  0  0  0  0  0  0  0  0  0
   33.7508  -30.1646   15.7661 N   0  0  0  0  0  0  0  0  0  0  0  0
   33.0466  -29.0656   15.1742 N   0  0  0  0  0  0  0  0  0  0  0  0
   33.4462  -27.8133   15.7667 N   0  0  0  0  0  0  0  0  0  0  0  0
   34.8563  -27.5674   15.7717 N   0  0  0  0  0  0  0  0  0  0  0  0
   35.4168  -27.3380   14.4800 N   0  0  0  0  0  0  0  0  0  0  0  0
   34.8861  -26.1994   13.8928 N   0  0  0  0  0  0  0  0  0  0  0  0
   35.2429  -25.0644   14.6242 N   0  0  0  0  0  0  0  0  0  0  0  0
   34.7921  -23.9779   13.8729 N   0  0  0  0  0  0  0  0  0  0  0  0
   33.3641  -24.0149   13.8526 N   0  0  0  0  0  0  0  0  0  0  0  0
   32.7028  -22.6479   13.2211 S   0  0  0  0  0  0  0  0  0  0  0  0
   33.1302  -22.6432   11.6193 N   0  0  0  0  0  0  0  0  0  0  0  0
   32.6047  -21.3070   10.8102 S   0  0  0  0  0  0  0  0  0  0  0  0
   33.1208  -19.9508   11.6075 N   0  0  0  0  0  0  0  0  0  0  0  0
   34.7651  -19.7324   11.5441 S   0  0  0  0  0  0  0  0  0  0  0  0
   35.1142  -18.2496   12.2229 N   0  0  0  0  0  0  0  0  0  0  0  0
   34.6364  -18.0853   13.8038 S   0  0  0  0  0  0  0  0  0  0  0  0
   35.4674  -19.1254   14.7922 N   0  0  0  0  0  0  0  0  0  0  0  0
   37.1103  -19.0149   14.6634 S   0  0  0  0  0  0  0  0  0  0  0  0
   37.5769  -17.6651   15.5130 N   0  0  0  0  0  0  0  0  0  0  0  0
   39.1970  -17.7849   15.8533 S   0  0  0  0  0  0  0  0  0  0  0  0
   39.7443  -16.2894   16.3058 N   0  0  0  0  0  0  0  0  0  0  0  0
   39.1912  -15.7920   17.7954 S   0  0  0  0  0  0  0  0  0  0  0  0
   39.6556  -16.8835   18.9614 N   0  0  0  0  0  0  0  0  0  0  0  0
   39.1768  -16.4400   20.4752 S   0  0  0  0  0  0  0  0  0  0  0  0
   37.5284  -16.5210   20.4385 N   0  0  0  0  0  0  0  0  0  0  0  0
   36.8113  -16.2758   21.9063 S   0  0  0  0  0  0  0  0  0  0  0  0
   37.3063  -14.8459   22.5774 N   0  0  0  0  0  0  0  0  0  0  0  0
   36.8820  -13.4595   21.7766 S   0  0  0  0  0  0  0  0  0  0  0  0
   35.2445  -13.3142   21.6404 N   0  0  0  0  0  0  0  0  0  0  0  0
   34.3963  -13.0353   23.0228 S   0  0  0  0  0  0  0  0  0  0  0  0
   34.9563  -11.6653   23.7476 N   0  0  0  0  0  0  0  0  0  0  0  0
   34.6634  -10.2360   22.9684 S   0  0  0  0  0  0  0  0  0  0  0  0
   33.0409  -10.0041   22.7422 N   0  0  0  0  0  0  0  0  0  0  0  0
   32.1395   -9.8279   24.1161 S   0  0  0  0  0  0  0  0  0  0  0  0
   32.5893   -8.4684   24.9177 N   0  0  0  0  0  0  0  0  0  0  0  0
   32.1266   -7.0641   24.1951 S   0  0  0  0  0  0  0  0  0  0  0  0
   32.8478   -5.9032   25.1342 N   0  0  0  0  0  0  0  0  0  0  0  0
   31.9952   -5.5744   26.5217 S   0  0  0  0  0  0  0  0  0  0  0  0
   32.0485   -6.9495   27.4600 N   0  0  0  0  0  0  0  0  0  0  0  0
   33.5568   -7.2450   28.1167 S   0  0  0  0  0  0  0  0  0  0  0  0
   34.0830   -5.9927   29.0468 N   0  0  0  0  0  0  0  0  0  0  0  0
   33.3263   -5.8798   30.5047 S   0  0  0  0  0  0  0  0  0  0  0  0
   33.9444   -4.4889   31.1622 N   0  0  0  0  0  0  0  0  0  0  0  0
   35.4376   -4.6936   31.8486 S   0  0  0  0  0  0  0  0  0  0  0  0
   36.4626   -5.0800   30.6034 N   0  0  0  0  0  0  0  0  0  0  0  0
   36.8572   -3.8071   29.6076 S   0  0  0  0  0  0  0  0  0  0  0  0
   37.2558   -2.4602   30.4688 N   0  0  0  0  0  0  0  0  0  0  0  0
   38.7484   -2.4520   31.1767 S   0  0  0  0  0  0  0  0  0  0  0  0
   39.9219   -2.8385   30.0788 N   0  0  0  0  0  0  0  0  0  0  0  0
   40.2579   -1.6931   28.9294 S   0  0  0  0  0  0  0  0  0  0  0  0
   40.8252   -0.2815   29.5688 N   0  0  0  0  0  0  0  0  0  0  0  0
   42.2383   -0.3330   30.4076 S   0  0  0  0  0  0  0  0  0  0  0  0
   43.4893   -0.7019   29.3961 N   0  0  0  0  0  0  0  0  0  0  0  0
   43.7768    0.3561   28.1597 S   0  0  0  0  0  0  0  0  0  0  0  0
   44.2856    1.8063   28.7585 N   0  0  0  0  0  0  0  0  0  0  0  0
   45.6276    1.7487   29.7190 S   0  0  0  0  0  0  0  0  0  0  0  0
   46.9142    1.3743   28.7583 N   0  0  0  0  0  0  0  0  0  0  0  0
   48.3308    1.5305   29.5945 S   0  0  0  0  0  0  0  0  0  0  0  0
   49.5160    0.9108   28.6291 N   0  0  0  0  0  0  0  0  0  0  0  0
   49.8117    1.8510   27.3026 S   0  0  0  0  0  0  0  0  0  0  0  0
   51.1400    1.1808   26.5761 N   0  0  0  0  0  0  0  0  0  0  0  0
   50.7970   -0.3342   26.0062 S   0  0  0  0  0  0  0  0  0  0  0  0
   52.1509   -0.8231   25.2167 N   0  0  0  0  0  0  0  0  0  0  0  0
   27.9460  -45.7444   17.6032 H   0  0  0  0  0  0  0  0  0  0  0  0
   28.2477  -45.2124   19.2656 H   0  0  0  0  0  0  0  0  0  0  0  0
   29.4919  -44.9884   18.0059 H   0  0  0  0  0  0  0  0  0  0  0  0
   26.8351  -43.7173   18.0427 H   0  0  0  0  0  0  0  0  0  0  0  0
   29.5430  -42.6012   18.4886 H   0  0  0  0  0  0  0  0  0  0  0  0
   28.3022  -42.8008   19.7393 H   0  0  0  0  0  0  0  0  0  0  0  0
   26.8013  -41.2382   18.4785 H   0  0  0  0  0  0  0  0  0  0  0  0
   28.0403  -41.0576   17.2304 H   0  0  0  0  0  0  0  0  0  0  0  0
   29.6423  -40.1841   18.9657 H   0  0  0  0  0  0  0  0  0  0  0  0
   28.3643  -40.3194   20.1904 H   0  0  0  0  0  0  0  0  0  0  0  0
   27.0406  -38.7988   18.8367 H   0  0  0  0  0  0  0  0  0  0  0  0
   29.5426  -37.5845   19.2132 H   0  0  0  0  0  0  0  0  0  0  0  0
   26.8604  -36.8425   19.6966 H   0  0  0  0  0  0  0  0  0  0  0  0
   28.4815  -35.7810   21.0915 H   0  0  0  0  0  0  0  0  0  0  0  0
   30.5168  -36.0651   20.0444 H   0  0  0  0  0  0  0  0  0  0  0  0
   29.9670  -35.8168   17.7032 H   0  0  0  0  0  0  0  0  0  0  0  0
   28.6246  -33.7914   18.1799 H   0  0  0  0  0  0  0  0  0  0  0  0
   30.0555  -32.8805   19.6482 H   0  0  0  0  0  0  0  0  0  0  0  0
   31.9416  -33.6780   18.8420 H   0  0  0  0  0  0  0  0  0  0  0  0
   31.4887  -33.3260   16.6095 H   0  0  0  0  0  0  0  0  0  0  0  0
   30.4601  -31.2787   16.6925 H   0  0  0  0  0  0  0  0  0  0  0  0
   31.7071  -30.1969   18.2902 H   0  0  0  0  0  0  0  0  0  0  0  0
   33.7500  -31.0939   17.4870 H   0  0  0  0  0  0  0  0  0  0  0  0
   33.2334  -30.9789   15.4378 H   0  0  0  0  0  0  0  0  0  0  0  0
   32.0665  -29.2615   15.4430 H   0  0  0  0  0  0  0  0  0  0  0  0
   33.1714  -27.7803   16.7461 H   0  0  0  0  0  0  0  0  0  0  0  0
   35.3304  -28.3310   16.2618 H   0  0  0  0  0  0  0  0  0  0  0  0
   35.1401  -28.1110   13.8824 H   0  0  0  0  0  0  0  0  0  0  0  0
   33.8679  -26.2284   13.9601 H   0  0  0  0  0  0  0  0  0  0  0  0
   36.2508  -25.0699   14.6955 H   0  0  0  0  0  0  0  0  0  0  0  0
   35.1473  -24.1566   12.9316 H   0  0  0  0  0  0  0  0  0  0  0  0
   33.0678  -24.1831   14.8157 H   0  0  0  0  0  0  0  0  0  0  0  0
   32.8369  -23.5259   11.1996 H   0  0  0  0  0  0  0  0  0  0  0  0
   32.8314  -19.9596   12.5886 H   0  0  0  0  0  0  0  0  0  0  0  0
   34.6971  -17.5183   11.6457 H   0  0  0  0  0  0  0  0  0  0  0  0
   35.1495  -20.0942   14.6908 H   0  0  0  0  0  0  0  0  0  0  0  0
   37.0411  -17.6400   16.3801 H   0  0  0  0  0  0  0  0  0  0  0  0
   39.4832  -15.6021   15.5946 H   0  0  0  0  0  0  0  0  0  0  0  0
   40.6608  -17.0281   18.9498 H   0  0  0  0  0  0  0  0  0  0  0  0
   37.2611  -17.4294   20.0465 H   0  0  0  0  0  0  0  0  0  0  0  0
   38.3148  -14.8481   22.6965 H   0  0  0  0  0  0  0  0  0  0  0  0
   34.8654  -14.1316   21.1715 H   0  0  0  0  0  0  0  0  0  0  0  0
   35.9581  -11.7877   23.8980 H   0  0  0  0  0  0  0  0  0  0  0  0
   32.6787  -10.7815   22.1985 H   0  0  0  0  0  0  0  0  0  0  0  0
   33.5790   -8.4425   25.1554 H   0  0  0  0  0  0  0  0  0  0  0  0
   32.9497   -5.0511   24.5835 H   0  0  0  0  0  0  0  0  0  0  0  0
   31.8324   -7.7351   26.8283 H   0  0  0  0  0  0  0  0  0  0  0  0
   34.1260   -5.0937   28.5709 H   0  0  0  0  0  0  0  0  0  0  0  0
   33.3076   -4.1412   31.8727 H   0  0  0  0  0  0  0  0  0  0  0  0
   35.9425   -5.7642   30.0371 H   0  0  0  0  0  0  0  0  0  0  0  0
   36.5142   -2.2315   31.1397 H   0  0  0  0  0  0  0  0  0  0  0  0
   39.6690   -3.7141   29.6179 H   0  0  0  0  0  0  0  0  0  0  0  0
   40.1083    0.2100   30.1005 H   0  0  0  0  0  0  0  0  0  0  0  0
   43.3368   -1.6226   29.0028 H   0  0  0  0  0  0  0  0  0  0  0  0
   43.5133    2.2520   29.2527 H   0  0  0  0  0  0  0  0  0  0  0  0
   46.9396    1.9535   27.9231 H   0  0  0  0  0  0  0  0  0  0  0  0
   49.3136   -0.0490   28.3524 H   0  0  0  0  0  0  0  0  0  0  0  0
   51.8939    1.1410   27.2551 H   0  0  0  0  0  0  0  0  0  0  0  0
   51.9116   -1.5924   24.5881 H   0  0  0  0  0  0  0  0  0  0  0  0
   52.8563   -1.2102   25.8433 H   0  0  0  0  0  0  0  0  0  0  0  0
  1  2  1  0  0  0  0
  1 82  1  0  0  0  0
  1 83  1  0  0  0  0
  1 84  1  0  0  0  0
  2  3  1  0  0  0  0
  2 85  1  0  0  0  0
  3  4  1  0  0  0  0
  3 86  1  0  0  0  0
  3 87  1  0  0  0  0
  4  5  1  0  0  0  0
  4 88  1  0  0  0  0
  4 89  1  0  0  0  0
  5  6  1  0  0  0  0
  5 90  1  0  0  0  0
  5 91  1  0  0  0  0
  6  7  1  0  0  0  0
  6 92  1  0  0  0  0
  7  8  1  0  0  0  0
  7 93  1  0  0  0  0
  8  9  1  0  0  0  0
  8 94  1  0  0  0  0
  9 10  1  0  0  0  0
  9 95  1  0  0  0  0
 10 11  1  0  0  0  0
 10 96  1  0  0  0  0
 11 12  1  0  0  0  0
 11 97  1  0  0  0  0
 12 13  1  0  0  0  0
 12 98  1  0  0  0  0
 13 14  1  0  0  0  0
 13 99  1  0  0  0  0
 14 15  1  0  0  0  0
 14100  1  0  0  0  0
 15 16  1  0  0  0  0
 15101  1  0  0  0  0
 16 17  1  0  0  0  0
 16102  1  0  0  0  0
 17 18  1  0  0  0  0
 17103  1  0  0  0  0
 18 19  1  0  0  0  0
 18104  1  0  0  0  0
 19 20  1  0  0  0  0
 19105  1  0  0  0  0
 20 21  1  0  0  0  0
 20106  1  0  0  0  0
 21 22  1  0  0  0  0
 21107  1  0  0  0  0
 22 23  1  0  0  0  0
 22108  1  0  0  0  0
 23 24  1  0  0  0  0
 23109  1  0  0  0  0
 24 25  1  0  0  0  0
 24110  1  0  0  0  0
 25 26  1  0  0  0  0
 25111  1  0  0  0  0
 26 27  1  0  0  0  0
 26112  1  0  0  0  0
 27 28  1  0  0  0  0
 27113  1  0  0  0  0
 28 29  1  0  0  0  0
 29 30  1  0  0  0  0
 29114  1  0  0  0  0
 30 31  1  0  0  0  0
 31 32  1  0  0  0  0
 31115  1  0  0  0  0
 32 33  1  0  0  0  0
 33 34  1  0  0  0  0
 33116  1  0  0  0  0
 34 35  1  0  0  0  0
 35 36  1  0  0  0  0
 35117  1  0  0  0  0
 36 37  1  0  0  0  0
 37 38  1  0  0  0  0
 37118  1  0  0  0  0
 38 39  1  0  0  0  0
 39 40  1  0  0  0  0
 39119  1  0  0  0  0
 40 41  1  0  0  0  0
 41 42  1  0  0  0  0
 41120  1  0  0  0  0
 42 43  1  0  0  0  0
 43 44  1  0  0  0  0
 43121  1  0  0  0  0
 44 45  1  0  0  0  0
 45 46  1  0  0  0  0
 45122  1  0  0  0  0
 46 47  1  0  0  0  0
 47 48  1  0  0  0  0
 47123  1  0  0  0  0
 48 49  1  0  0  0  0
 49 50  1  0  0  0  0
 49124  1  0  0  0  0
 50 51  1  0  0  0  0
 51 52  1  0  0  0  0
 51125  1  0  0  0  0
 52 53  1  0  0  0  0
 53 54  1  0  0  0  0
 53126  1  0  0  0  0
 54 55  1  0  0  0  0
 55 56  1  0  0  0  0
 55127  1  0  0  0  0
 56 57  1  0  0  0  0
 57 58  1  0  0  0  0
 57128  1  0  0  0  0
 58 59  1  0  0  0  0
 59 60  1  0  0  0  0
 59129  1  0  0  0  0
 60 61  1  0  0  0  0
 61 62  1  0  0  0  0
 61130  1  0  0  0  0
 62 63  1  0  0  0  0
 63 64  1  0  0  0  0
 63131  1  0  0  0  0
 64 65  1  0  0  0  0
 65 66  1  0  0  0  0
 65132  1  0  0  0  0
 66 67  1  0  0  0  0
 67 68  1  0  0  0  0
 67133  1  0  0  0  0
 68 69  1  0  0  0  0
 69 70  1  0  0  0  0
 69134  1  0  0  0  0
 70 71  1  0  0  0  0
 71 72  1  0  0  0  0
 71135  1  0  0  0  0
 72 73  1  0  0  0  0
 73 74  1  0  0  0  0
 73136  1  0  0  0  0
 74 75  1  0  0  0  0
 75 76  1  0  0  0  0
 75137  1  0  0  0  0
 76 77  1  0  0  0  0
 77 78  1  0  0  0  0
 77138  1  0  0  0  0
 78 79  1  0  0  0  0
 79 80  1  0  0  0  0
 79139  1  0  0  0  0
 80 81  1  0  0  0  0
 81140  1  0  0  0  0
 81141  1  0  0  0  0
M  END
$$$$
