
 OpenBabel04232216453D

 69 69  0  0  1  0  0  0  0  0999 V2000
    8.2544   -3.8331    9.0108 C   0  0  0  0  0  0  0  0  0  0  0  0
    7.7821   -5.0941    8.3925 C   0  0  0  0  0  0  0  0  0  0  0  0
    8.1545   -6.4190    8.7261 C   0  0  0  0  0  0  0  0  0  0  0  0
    7.4351   -7.2318    7.8770 C   0  0  0  0  0  0  0  0  0  0  0  0
    7.3811   -8.7037    7.7311 C   0  0  0  0  0  0  0  0  0  0  0  0
    6.6892   -6.3640    7.0963 N   0  0  0  0  0  0  0  0  0  0  0  0
    5.7512   -6.7247    6.0474 C   0  0  0  0  0  0  0  0  0  0  0  0
    6.4269   -6.8229    4.6900 C   0  0  0  0  0  0  0  0  0  0  0  0
    5.4496   -7.2163    3.5770 C   0  0  0  0  0  0  0  0  0  0  0  0
    6.2235   -7.2755    2.2615 C   0  0  0  0  0  0  0  0  0  0  0  0
    5.3590   -7.6552    1.0565 C   0  0  0  0  0  0  0  0  0  0  0  0
    6.1719   -7.7657   -0.2252 C   0  0  0  0  0  0  0  0  0  0  0  0
    5.9546   -6.9888   -1.2930 C   0  0  0  0  0  0  0  0  0  0  0  0
    7.2857   -8.8042   -0.2191 C   0  0  0  0  0  0  0  0  0  0  0  0
    6.8041  -10.2442   -0.0268 C   0  0  0  0  0  0  0  0  0  0  0  0
    5.8215  -10.8311   -1.0721 C   0  0  3  0  0  0  0  0  0  0  0  0
    6.4021  -10.8241   -2.5033 C   0  0  0  0  0  0  0  0  0  0  0  0
    5.4084  -11.3528   -3.5562 C   0  0  0  0  0  0  0  0  0  0  0  0
    5.9772  -11.4442   -4.9680 C   0  0  0  0  0  0  0  0  0  0  0  0
    7.2159  -12.3313   -5.0165 C   0  0  0  0  0  0  0  0  0  0  0  0
    7.7704  -12.4232   -6.4260 C   0  0  0  0  0  0  0  0  0  0  0  0
    9.0229  -13.2915   -6.4487 C   0  0  0  0  0  0  0  0  0  0  0  0
    9.5730  -13.3709   -7.8624 C   0  0  0  0  0  0  0  0  0  0  0  0
    5.4897  -12.2787   -0.6452 C   0  0  0  0  0  0  0  0  0  0  0  0
    4.8125  -12.3407    0.6986 C   0  0  0  0  0  0  0  0  0  0  0  0
    5.2616  -12.9786    1.6444 O   0  0  0  0  0  0  0  0  0  0  0  0
    6.8943   -5.0655    7.3938 N   0  0  0  0  0  0  0  0  0  0  0  0
    8.9735   -4.0318    9.8121 H   0  0  0  0  0  0  0  0  0  0  0  0
    7.4141   -3.2782    9.4409 H   0  0  0  0  0  0  0  0  0  0  0  0
    8.7448   -3.1994    8.2659 H   0  0  0  0  0  0  0  0  0  0  0  0
    8.8508   -6.7461    9.4881 H   0  0  0  0  0  0  0  0  0  0  0  0
    8.0450   -9.1935    8.4475 H   0  0  0  0  0  0  0  0  0  0  0  0
    7.6888   -9.0038    6.7229 H   0  0  0  0  0  0  0  0  0  0  0  0
    6.3642   -9.0722    7.9049 H   0  0  0  0  0  0  0  0  0  0  0  0
    4.9576   -5.9716    6.0402 H   0  0  0  0  0  0  0  0  0  0  0  0
    5.2939   -7.6831    6.3183 H   0  0  0  0  0  0  0  0  0  0  0  0
    7.2410   -7.5591    4.7285 H   0  0  0  0  0  0  0  0  0  0  0  0
    6.8947   -5.8618    4.4367 H   0  0  0  0  0  0  0  0  0  0  0  0
    4.6342   -6.4875    3.5079 H   0  0  0  0  0  0  0  0  0  0  0  0
    5.0022   -8.1931    3.7970 H   0  0  0  0  0  0  0  0  0  0  0  0
    7.0306   -8.0038    2.4003 H   0  0  0  0  0  0  0  0  0  0  0  0
    6.6988   -6.3043    2.0771 H   0  0  0  0  0  0  0  0  0  0  0  0
    4.5585   -6.9176    0.9376 H   0  0  0  0  0  0  0  0  0  0  0  0
    4.8669   -8.6159    1.2446 H   0  0  0  0  0  0  0  0  0  0  0  0
    5.1794   -6.2332   -1.3103 H   0  0  0  0  0  0  0  0  0  0  0  0
    6.5621   -7.0809   -2.1905 H   0  0  0  0  0  0  0  0  0  0  0  0
    7.9560   -8.5663    0.6153 H   0  0  0  0  0  0  0  0  0  0  0  0
    7.9171   -8.7232   -1.1074 H   0  0  0  0  0  0  0  0  0  0  0  0
    6.3326  -10.3066    0.9616 H   0  0  0  0  0  0  0  0  0  0  0  0
    7.6906  -10.8880    0.0359 H   0  0  0  0  0  0  0  0  0  0  0  0
    4.9008  -10.2343   -1.0706 H   0  0  0  0  0  0  0  0  0  0  0  0
    7.3155  -11.4287   -2.4939 H   0  0  0  0  0  0  0  0  0  0  0  0
    6.7001   -9.8112   -2.7973 H   0  0  0  0  0  0  0  0  0  0  0  0
    4.5275  -10.7016   -3.5805 H   0  0  0  0  0  0  0  0  0  0  0  0
    5.0589  -12.3550   -3.2945 H   0  0  0  0  0  0  0  0  0  0  0  0
    6.2010  -10.4426   -5.3497 H   0  0  0  0  0  0  0  0  0  0  0  0
    5.2050  -11.8679   -5.6276 H   0  0  0  0  0  0  0  0  0  0  0  0
    6.9692  -13.3325   -4.6420 H   0  0  0  0  0  0  0  0  0  0  0  0
    7.9993  -11.9241   -4.3706 H   0  0  0  0  0  0  0  0  0  0  0  0
    8.0115  -11.4163   -6.7882 H   0  0  0  0  0  0  0  0  0  0  0  0
    7.0108  -12.8411   -7.0958 H   0  0  0  0  0  0  0  0  0  0  0  0
    8.7895  -14.2991   -6.0851 H   0  0  0  0  0  0  0  0  0  0  0  0
    9.7851  -12.8746   -5.7795 H   0  0  0  0  0  0  0  0  0  0  0  0
    8.8336  -13.8157   -8.5340 H   0  0  0  0  0  0  0  0  0  0  0  0
   10.4768  -13.9817   -7.8845 H   0  0  0  0  0  0  0  0  0  0  0  0
    9.8183  -12.3711   -8.2330 H   0  0  0  0  0  0  0  0  0  0  0  0
    6.4050  -12.8813   -0.6068 H   0  0  0  0  0  0  0  0  0  0  0  0
    4.8024  -12.7635   -1.3412 H   0  0  0  0  0  0  0  0  0  0  0  0
    3.8585  -11.7934    0.7816 H   0  0  0  0  0  0  0  0  0  0  0  0
  1  2  1  0  0  0  0
  1 28  1  0  0  0  0
  1 29  1  0  0  0  0
  1 30  1  0  0  0  0
  2  3  1  0  0  0  0
  2 27  2  0  0  0  0
  3  4  2  0  0  0  0
  3 31  1  0  0  0  0
  4  5  1  0  0  0  0
  4  6  1  0  0  0  0
  5 32  1  0  0  0  0
  5 33  1  0  0  0  0
  5 34  1  0  0  0  0
  6  7  1  0  0  0  0
  6 27  1  0  0  0  0
  7  8  1  0  0  0  0
  7 35  1  0  0  0  0
  7 36  1  0  0  0  0
  8  9  1  0  0  0  0
  8 37  1  0  0  0  0
  8 38  1  0  0  0  0
  9 10  1  0  0  0  0
  9 39  1  0  0  0  0
  9 40  1  0  0  0  0
 10 11  1  0  0  0  0
 10 41  1  0  0  0  0
 10 42  1  0  0  0  0
 11 12  1  0  0  0  0
 11 43  1  0  0  0  0
 11 44  1  0  0  0  0
 12 13  2  0  0  0  0
 12 14  1  0  0  0  0
 13 45  1  0  0  0  0
 13 46  1  0  0  0  0
 14 15  1  0  0  0  0
 14 47  1  0  0  0  0
 14 48  1  0  0  0  0
 15 16  1  0  0  0  0
 15 49  1  0  0  0  0
 15 50  1  0  0  0  0
 16 17  1  0  0  0  0
 16 24  1  0  0  0  0
 16 51  1  0  0  0  0
 17 18  1  0  0  0  0
 17 52  1  0  0  0  0
 17 53  1  0  0  0  0
 18 19  1  0  0  0  0
 18 54  1  0  0  0  0
 18 55  1  0  0  0  0
 19 20  1  0  0  0  0
 19 56  1  0  0  0  0
 19 57  1  0  0  0  0
 20 21  1  0  0  0  0
 20 58  1  0  0  0  0
 20 59  1  0  0  0  0
 21 22  1  0  0  0  0
 21 60  1  0  0  0  0
 21 61  1  0  0  0  0
 22 23  1  0  0  0  0
 22 62  1  0  0  0  0
 22 63  1  0  0  0  0
 23 64  1  0  0  0  0
 23 65  1  0  0  0  0
 23 66  1  0  0  0  0
 24 25  1  0  0  0  0
 24 67  1  0  0  0  0
 24 68  1  0  0  0  0
 25 26  2  0  0  0  0
 25 69  1  0  0  0  0
M  END
$$$$
