
 OpenBabel04232217013D

235234  0  0  0  0  0  0  0  0999 V2000
    2.7812   -7.1068    0.5165 O   0  0  0  0  0  0  0  0  0  0  0  0
    4.2012   -7.2005    0.4840 C   0  0  0  0  0  0  0  0  0  0  0  0
    4.7506   -5.8984   -0.0438 C   0  0  0  0  0  0  0  0  0  0  0  0
    4.2324   -5.6425   -1.4661 C   0  0  0  0  0  0  0  0  0  0  0  0
    4.7886   -4.3413   -1.9971 C   0  0  0  0  0  0  0  0  0  0  0  0
    6.1961   -4.4612   -1.9798 O   0  0  0  0  0  0  0  0  0  0  0  0
    6.6779   -3.1995   -2.4815 O   0  0  0  0  0  0  0  0  0  0  0  0
    8.1118   -3.2252   -2.5073 O   0  0  0  0  0  0  0  0  0  0  0  0
    8.5493   -4.3015   -3.3621 O   0  0  0  0  0  0  0  0  0  0  0  0
    9.9547   -4.2403   -3.3039 C   0  0  0  0  0  0  0  0  0  0  0  0
   10.4619   -5.3519   -4.1842 C   0  0  0  0  0  0  0  0  0  0  0  0
   11.9702   -5.3444   -4.1911 C   0  0  0  0  0  0  0  0  0  0  0  0
   12.4700   -6.4614   -5.0798 C   0  0  0  0  0  0  0  0  0  0  0  0
   13.9837   -6.4566   -5.0863 C   0  0  0  0  0  0  0  0  0  0  0  0
   14.4894   -7.5735   -5.9749 C   0  0  0  0  0  0  0  0  0  0  0  0
   16.0043   -7.5712   -5.9808 C   0  0  0  0  0  0  0  0  0  0  0  0
   16.5129   -8.6874   -6.8715 C   0  0  0  0  0  0  0  0  0  0  0  0
   18.0284   -8.6847   -6.8799 C   0  0  0  0  0  0  0  0  0  0  0  0
   18.5379   -9.8021   -7.7691 C   0  0  0  0  0  0  0  0  0  0  0  0
   20.0546   -9.8018   -7.7764 C   0  0  0  0  0  0  0  0  0  0  0  0
   20.5644  -10.9181   -8.6670 C   0  0  0  0  0  0  0  0  0  0  0  0
   22.0810  -10.9187   -8.6733 C   0  0  0  0  0  0  0  0  0  0  0  0
   22.5907  -12.0342   -9.5651 C   0  0  0  0  0  0  0  0  0  0  0  0
   24.1071  -12.0366   -9.5702 C   0  0  0  0  0  0  0  0  0  0  0  0
   24.6170  -13.1518  -10.4627 C   0  0  0  0  0  0  0  0  0  0  0  0
   26.1335  -13.1531  -10.4688 C   0  0  0  0  0  0  0  0  0  0  0  0
   26.6434  -14.2681  -11.3612 C   0  0  0  0  0  0  0  0  0  0  0  0
   28.1600  -14.2693  -11.3674 C   0  0  0  0  0  0  0  0  0  0  0  0
   28.6700  -15.3845  -12.2598 C   0  0  0  0  0  0  0  0  0  0  0  0
   30.1866  -15.3856  -12.2660 C   0  0  0  0  0  0  0  0  0  0  0  0
   30.6966  -16.5008  -13.1584 C   0  0  0  0  0  0  0  0  0  0  0  0
   32.2133  -16.5020  -13.1646 C   0  0  0  0  0  0  0  0  0  0  0  0
   32.7233  -17.6171  -14.0570 C   0  0  0  0  0  0  0  0  0  0  0  0
   34.2399  -17.6196  -14.0616 C   0  0  0  0  0  0  0  0  0  0  0  0
   34.7499  -18.7347  -14.9541 C   0  0  0  0  0  0  0  0  0  0  0  0
   36.2666  -18.7384  -14.9571 C   0  0  0  0  0  0  0  0  0  0  0  0
   36.7766  -19.8524  -15.8510 C   0  0  0  0  0  0  0  0  0  0  0  0
   38.2933  -19.8573  -15.8525 C   0  0  0  0  0  0  0  0  0  0  0  0
   38.8033  -20.9725  -16.7450 C   0  0  0  0  0  0  0  0  0  0  0  0
   40.3199  -20.9762  -16.7479 C   0  0  0  0  0  0  0  0  0  0  0  0
   40.8299  -22.0901  -17.6419 C   0  0  0  0  0  0  0  0  0  0  0  0
   42.3466  -22.0938  -17.6449 C   0  0  0  0  0  0  0  0  0  0  0  0
   42.8566  -23.2077  -18.5390 C   0  0  0  0  0  0  0  0  0  0  0  0
   44.3732  -23.2114  -18.5420 C   0  0  0  0  0  0  0  0  0  0  0  0
   44.8833  -24.3253  -19.4360 C   0  0  0  0  0  0  0  0  0  0  0  0
   46.3999  -24.3290  -19.4390 C   0  0  0  0  0  0  0  0  0  0  0  0
   46.9099  -25.4429  -20.3331 C   0  0  0  0  0  0  0  0  0  0  0  0
   48.4266  -25.4466  -20.3360 C   0  0  0  0  0  0  0  0  0  0  0  0
   48.9366  -26.5605  -21.2300 C   0  0  0  0  0  0  0  0  0  0  0  0
   50.4532  -26.5654  -21.2315 C   0  0  0  0  0  0  0  0  0  0  0  0
   50.9632  -27.6794  -22.1255 C   0  0  0  0  0  0  0  0  0  0  0  0
   52.4799  -27.6831  -22.1285 C   0  0  0  0  0  0  0  0  0  0  0  0
   52.9899  -28.7982  -23.0210 C   0  0  0  0  0  0  0  0  0  0  0  0
   54.5065  -28.8007  -23.0255 C   0  0  0  0  0  0  0  0  0  0  0  0
   55.0166  -29.9146  -23.9196 C   0  0  0  0  0  0  0  0  0  0  0  0
   56.5332  -29.9158  -23.9257 C   0  0  0  0  0  0  0  0  0  0  0  0
   57.0432  -31.0284  -24.8212 C   0  0  0  0  0  0  0  0  0  0  0  0
   58.5598  -31.0308  -24.8259 C   0  0  0  0  0  0  0  0  0  0  0  0
   59.0699  -32.1435  -25.7215 C   0  0  0  0  0  0  0  0  0  0  0  0
   60.5865  -32.1447  -25.7276 C   0  0  0  0  0  0  0  0  0  0  0  0
   61.0965  -33.2573  -26.6232 C   0  0  0  0  0  0  0  0  0  0  0  0
   62.6131  -33.2585  -26.6294 C   0  0  0  0  0  0  0  0  0  0  0  0
   63.1230  -34.3711  -27.5250 C   0  0  0  0  0  0  0  0  0  0  0  0
   64.6396  -34.3722  -27.5311 C   0  0  0  0  0  0  0  0  0  0  0  0
   65.1494  -35.4849  -28.4266 C   0  0  0  0  0  0  0  0  0  0  0  0
   66.6661  -35.4856  -28.4325 C   0  0  0  0  0  0  0  0  0  0  0  0
   67.1767  -36.5981  -29.3280 C   0  0  0  0  0  0  0  0  0  0  0  0
   68.6938  -36.5988  -29.3338 C   0  0  0  0  0  0  0  0  0  0  0  0
   69.2033  -37.7109  -30.2288 C   0  0  0  0  0  0  0  0  0  0  0  0
   70.7203  -37.7118  -30.2374 C   0  0  0  0  0  0  0  0  0  0  0  0
   71.2301  -38.8245  -31.1330 C   0  0  0  0  0  0  0  0  0  0  0  0
   72.7469  -38.8251  -31.1413 C   0  0  0  0  0  0  0  0  0  0  0  0
   73.2570  -39.9382  -32.0372 C   0  0  0  0  0  0  0  0  0  0  0  0
   74.7743  -39.9395  -32.0461 C   0  0  0  0  0  0  0  0  0  0  0  0
   75.2850  -41.0528  -32.9422 C   0  0  0  0  0  0  0  0  0  0  0  0
   76.8032  -41.0531  -32.9528 C   0  0  0  0  0  0  0  0  0  0  0  0
   77.3188  -42.1657  -33.8484 C   0  0  0  0  0  0  0  0  0  0  0  0
   78.8396  -42.1655  -33.8587 C   0  0  0  0  0  0  0  0  0  0  0  0
   79.3584  -43.2778  -34.7567 C   0  0  0  0  0  0  0  0  0  0  0  0
   80.8809  -43.2872  -34.7772 C   0  0  0  0  0  0  0  0  0  0  0  0
   81.3931  -44.3980  -35.6740 C   0  0  0  0  0  0  0  0  0  0  0  0
    2.4493   -7.9606    0.8195 H   0  0  0  0  0  0  0  0  0  0  0  0
    4.4962   -8.0364   -0.1532 H   0  0  0  0  0  0  0  0  0  0  0  0
    4.5513   -7.3817    1.5068 H   0  0  0  0  0  0  0  0  0  0  0  0
    5.8470   -5.9330   -0.0293 H   0  0  0  0  0  0  0  0  0  0  0  0
    4.4398   -5.0679    0.5991 H   0  0  0  0  0  0  0  0  0  0  0  0
    3.1444   -5.6002   -1.4893 H   0  0  0  0  0  0  0  0  0  0  0  0
    4.5517   -6.4648   -2.1188 H   0  0  0  0  0  0  0  0  0  0  0  0
    4.4924   -3.4990   -1.3620 H   0  0  0  0  0  0  0  0  0  0  0  0
    4.4494   -4.1630   -3.0212 H   0  0  0  0  0  0  0  0  0  0  0  0
   10.2945   -4.3701   -2.2698 H   0  0  0  0  0  0  0  0  0  0  0  0
   10.2853   -3.2643   -3.6726 H   0  0  0  0  0  0  0  0  0  0  0  0
   10.0633   -5.2283   -5.1993 H   0  0  0  0  0  0  0  0  0  0  0  0
   10.0748   -6.3138   -3.8241 H   0  0  0  0  0  0  0  0  0  0  0  0
   12.3494   -5.4739   -3.1702 H   0  0  0  0  0  0  0  0  0  0  0  0
   12.3377   -4.3774   -4.5552 H   0  0  0  0  0  0  0  0  0  0  0  0
   12.0874   -6.3293   -6.0994 H   0  0  0  0  0  0  0  0  0  0  0  0
   12.0969   -7.4264   -4.7151 H   0  0  0  0  0  0  0  0  0  0  0  0
   14.3625   -6.5866   -4.0651 H   0  0  0  0  0  0  0  0  0  0  0  0
   14.3532   -5.4896   -5.4491 H   0  0  0  0  0  0  0  0  0  0  0  0
   14.1089   -7.4408   -6.9953 H   0  0  0  0  0  0  0  0  0  0  0  0
   14.1159   -8.5389   -5.6117 H   0  0  0  0  0  0  0  0  0  0  0  0
   16.3826   -7.7036   -4.9595 H   0  0  0  0  0  0  0  0  0  0  0  0
   16.3753   -6.6039   -6.3417 H   0  0  0  0  0  0  0  0  0  0  0  0
   16.1316   -8.5547   -7.8913 H   0  0  0  0  0  0  0  0  0  0  0  0
   16.1414   -9.6534   -6.5086 H   0  0  0  0  0  0  0  0  0  0  0  0
   18.4085   -8.8150   -5.8590 H   0  0  0  0  0  0  0  0  0  0  0  0
   18.3989   -7.7181   -7.2431 H   0  0  0  0  0  0  0  0  0  0  0  0
   18.1584   -9.6705   -8.7899 H   0  0  0  0  0  0  0  0  0  0  0  0
   18.1657  -10.7681   -7.4062 H   0  0  0  0  0  0  0  0  0  0  0  0
   20.4333   -9.9343   -6.7555 H   0  0  0  0  0  0  0  0  0  0  0  0
   20.4263   -8.8350   -8.1376 H   0  0  0  0  0  0  0  0  0  0  0  0
   20.1859  -10.7844   -9.6879 H   0  0  0  0  0  0  0  0  0  0  0  0
   20.1912  -11.8844   -8.3063 H   0  0  0  0  0  0  0  0  0  0  0  0
   22.4590  -11.0538   -7.6523 H   0  0  0  0  0  0  0  0  0  0  0  0
   22.4543   -9.9518   -9.0325 H   0  0  0  0  0  0  0  0  0  0  0  0
   22.2137  -11.8982  -10.5864 H   0  0  0  0  0  0  0  0  0  0  0  0
   22.2160  -13.0009   -9.2072 H   0  0  0  0  0  0  0  0  0  0  0  0
   24.4843  -12.1726   -8.5491 H   0  0  0  0  0  0  0  0  0  0  0  0
   24.4817  -11.0698   -9.9285 H   0  0  0  0  0  0  0  0  0  0  0  0
   24.2388  -13.0166  -11.4835 H   0  0  0  0  0  0  0  0  0  0  0  0
   24.2434  -14.1188  -10.1036 H   0  0  0  0  0  0  0  0  0  0  0  0
   26.5117  -13.2882   -9.4479 H   0  0  0  0  0  0  0  0  0  0  0  0
   26.5070  -12.1860  -10.8279 H   0  0  0  0  0  0  0  0  0  0  0  0
   26.2652  -14.1329  -12.3821 H   0  0  0  0  0  0  0  0  0  0  0  0
   26.2699  -15.2351  -11.0021 H   0  0  0  0  0  0  0  0  0  0  0  0
   28.5381  -14.4045  -10.3465 H   0  0  0  0  0  0  0  0  0  0  0  0
   28.5334  -13.3023  -11.7264 H   0  0  0  0  0  0  0  0  0  0  0  0
   28.2918  -15.2492  -13.2807 H   0  0  0  0  0  0  0  0  0  0  0  0
   28.2965  -16.3514  -11.9007 H   0  0  0  0  0  0  0  0  0  0  0  0
   30.5647  -15.5208  -11.2451 H   0  0  0  0  0  0  0  0  0  0  0  0
   30.5600  -14.4186  -12.6250 H   0  0  0  0  0  0  0  0  0  0  0  0
   30.3185  -16.3656  -14.1793 H   0  0  0  0  0  0  0  0  0  0  0  0
   30.3232  -17.4677  -12.7993 H   0  0  0  0  0  0  0  0  0  0  0  0
   32.5914  -16.6372  -12.1437 H   0  0  0  0  0  0  0  0  0  0  0  0
   32.5867  -15.5350  -13.5236 H   0  0  0  0  0  0  0  0  0  0  0  0
   32.3463  -17.4811  -15.0782 H   0  0  0  0  0  0  0  0  0  0  0  0
   32.3487  -18.5840  -13.6988 H   0  0  0  0  0  0  0  0  0  0  0  0
   34.6169  -17.7556  -13.0404 H   0  0  0  0  0  0  0  0  0  0  0  0
   34.6146  -16.6527  -14.4198 H   0  0  0  0  0  0  0  0  0  0  0  0
   34.3741  -18.5979  -15.9755 H   0  0  0  0  0  0  0  0  0  0  0  0
   34.3742  -19.7015  -14.5967 H   0  0  0  0  0  0  0  0  0  0  0  0
   36.6423  -18.8766  -13.9357 H   0  0  0  0  0  0  0  0  0  0  0  0
   36.6424  -17.7713  -15.3131 H   0  0  0  0  0  0  0  0  0  0  0  0
   36.4020  -19.7133  -16.8727 H   0  0  0  0  0  0  0  0  0  0  0  0
   36.3997  -20.8194  -15.4959 H   0  0  0  0  0  0  0  0  0  0  0  0
   38.6680  -19.9950  -14.8307 H   0  0  0  0  0  0  0  0  0  0  0  0
   38.6701  -18.8907  -16.2090 H   0  0  0  0  0  0  0  0  0  0  0  0
   38.4275  -20.8356  -17.7665 H   0  0  0  0  0  0  0  0  0  0  0  0
   38.4275  -21.9392  -16.3876 H   0  0  0  0  0  0  0  0  0  0  0  0
   40.6957  -21.1144  -15.7266 H   0  0  0  0  0  0  0  0  0  0  0  0
   40.6957  -20.0090  -17.1040 H   0  0  0  0  0  0  0  0  0  0  0  0
   40.4541  -21.9518  -18.6633 H   0  0  0  0  0  0  0  0  0  0  0  0
   40.4541  -23.0573  -17.2860 H   0  0  0  0  0  0  0  0  0  0  0  0
   42.7224  -22.2320  -16.6236 H   0  0  0  0  0  0  0  0  0  0  0  0
   42.7224  -21.1266  -18.0010 H   0  0  0  0  0  0  0  0  0  0  0  0
   42.4808  -23.0694  -19.5603 H   0  0  0  0  0  0  0  0  0  0  0  0
   42.4808  -24.1749  -18.1830 H   0  0  0  0  0  0  0  0  0  0  0  0
   44.7490  -23.3496  -17.5207 H   0  0  0  0  0  0  0  0  0  0  0  0
   44.7490  -22.2442  -18.8980 H   0  0  0  0  0  0  0  0  0  0  0  0
   44.5075  -24.1870  -20.4573 H   0  0  0  0  0  0  0  0  0  0  0  0
   44.5075  -25.2925  -19.0800 H   0  0  0  0  0  0  0  0  0  0  0  0
   46.7757  -24.4672  -18.4177 H   0  0  0  0  0  0  0  0  0  0  0  0
   46.7757  -23.3618  -19.7950 H   0  0  0  0  0  0  0  0  0  0  0  0
   46.5341  -25.3046  -21.3544 H   0  0  0  0  0  0  0  0  0  0  0  0
   46.5341  -26.4101  -19.9770 H   0  0  0  0  0  0  0  0  0  0  0  0
   48.8023  -25.5848  -19.3147 H   0  0  0  0  0  0  0  0  0  0  0  0
   48.8024  -24.4794  -20.6920 H   0  0  0  0  0  0  0  0  0  0  0  0
   48.5619  -26.4215  -22.2517 H   0  0  0  0  0  0  0  0  0  0  0  0
   48.5597  -27.5276  -20.8749 H   0  0  0  0  0  0  0  0  0  0  0  0
   50.8279  -26.7045  -20.2099 H   0  0  0  0  0  0  0  0  0  0  0  0
   50.8301  -25.5984  -21.5866 H   0  0  0  0  0  0  0  0  0  0  0  0
   50.5875  -27.5412  -23.1468 H   0  0  0  0  0  0  0  0  0  0  0  0
   50.5874  -28.6465  -21.7695 H   0  0  0  0  0  0  0  0  0  0  0  0
   52.8558  -27.8199  -21.1070 H   0  0  0  0  0  0  0  0  0  0  0  0
   52.8556  -26.7164  -22.4858 H   0  0  0  0  0  0  0  0  0  0  0  0
   52.6129  -28.6622  -24.0421 H   0  0  0  0  0  0  0  0  0  0  0  0
   52.6153  -29.7651  -22.6628 H   0  0  0  0  0  0  0  0  0  0  0  0
   54.8835  -28.9381  -22.0045 H   0  0  0  0  0  0  0  0  0  0  0  0
   54.8811  -27.8334  -23.3824 H   0  0  0  0  0  0  0  0  0  0  0  0
   54.6384  -29.7779  -24.9402 H   0  0  0  0  0  0  0  0  0  0  0  0
   54.6431  -30.8821  -23.5619 H   0  0  0  0  0  0  0  0  0  0  0  0
   56.9113  -30.0538  -22.9052 H   0  0  0  0  0  0  0  0  0  0  0  0
   56.9067  -28.9478  -24.2821 H   0  0  0  0  0  0  0  0  0  0  0  0
   56.6662  -30.8895  -25.8420 H   0  0  0  0  0  0  0  0  0  0  0  0
   56.6686  -31.9963  -24.4658 H   0  0  0  0  0  0  0  0  0  0  0  0
   58.9369  -31.1697  -23.8051 H   0  0  0  0  0  0  0  0  0  0  0  0
   58.9344  -30.0630  -25.1814 H   0  0  0  0  0  0  0  0  0  0  0  0
   58.6917  -32.0054  -26.7420 H   0  0  0  0  0  0  0  0  0  0  0  0
   58.6964  -33.1115  -25.3651 H   0  0  0  0  0  0  0  0  0  0  0  0
   60.9646  -32.2827  -24.7072 H   0  0  0  0  0  0  0  0  0  0  0  0
   60.9599  -31.1767  -26.0840 H   0  0  0  0  0  0  0  0  0  0  0  0
   60.7183  -33.1192  -27.6437 H   0  0  0  0  0  0  0  0  0  0  0  0
   60.7231  -34.2253  -26.2669 H   0  0  0  0  0  0  0  0  0  0  0  0
   62.9913  -33.3966  -25.6089 H   0  0  0  0  0  0  0  0  0  0  0  0
   62.9866  -32.2905  -26.9857 H   0  0  0  0  0  0  0  0  0  0  0  0
   62.7450  -34.2330  -28.5454 H   0  0  0  0  0  0  0  0  0  0  0  0
   62.7497  -35.3391  -27.1686 H   0  0  0  0  0  0  0  0  0  0  0  0
   65.0178  -34.5104  -26.5106 H   0  0  0  0  0  0  0  0  0  0  0  0
   65.0131  -33.4043  -27.8874 H   0  0  0  0  0  0  0  0  0  0  0  0
   64.7715  -35.3468  -29.4471 H   0  0  0  0  0  0  0  0  0  0  0  0
   64.7762  -36.4529  -28.0703 H   0  0  0  0  0  0  0  0  0  0  0  0
   67.0440  -35.6237  -27.4120 H   0  0  0  0  0  0  0  0  0  0  0  0
   67.0393  -34.5176  -28.7889 H   0  0  0  0  0  0  0  0  0  0  0  0
   66.7983  -36.4601  -30.3484 H   0  0  0  0  0  0  0  0  0  0  0  0
   66.8030  -37.5662  -28.9717 H   0  0  0  0  0  0  0  0  0  0  0  0
   69.0708  -36.7359  -28.3122 H   0  0  0  0  0  0  0  0  0  0  0  0
   69.0659  -35.6296  -29.6894 H   0  0  0  0  0  0  0  0  0  0  0  0
   68.8238  -37.5728  -31.2486 H   0  0  0  0  0  0  0  0  0  0  0  0
   68.8309  -38.6786  -29.8708 H   0  0  0  0  0  0  0  0  0  0  0  0
   71.0990  -37.8492  -29.2172 H   0  0  0  0  0  0  0  0  0  0  0  0
   71.0920  -36.7437  -30.5945 H   0  0  0  0  0  0  0  0  0  0  0  0
   70.8503  -38.6873  -32.1532 H   0  0  0  0  0  0  0  0  0  0  0  0
   70.8573  -39.7927  -30.7760 H   0  0  0  0  0  0  0  0  0  0  0  0
   73.1261  -38.9625  -30.1212 H   0  0  0  0  0  0  0  0  0  0  0  0
   73.1191  -37.8570  -31.4986 H   0  0  0  0  0  0  0  0  0  0  0  0
   72.8772  -39.8006  -33.0571 H   0  0  0  0  0  0  0  0  0  0  0  0
   72.8843  -40.9060  -31.6799 H   0  0  0  0  0  0  0  0  0  0  0  0
   75.1535  -40.0766  -31.0259 H   0  0  0  0  0  0  0  0  0  0  0  0
   75.1463  -38.9712  -32.4031 H   0  0  0  0  0  0  0  0  0  0  0  0
   74.9035  -40.9158  -33.9616 H   0  0  0  0  0  0  0  0  0  0  0  0
   74.9129  -42.0204  -32.5838 H   0  0  0  0  0  0  0  0  0  0  0  0
   77.1823  -41.1887  -31.9324 H   0  0  0  0  0  0  0  0  0  0  0  0
   77.1728  -40.0840  -33.3102 H   0  0  0  0  0  0  0  0  0  0  0  0
   76.9376  -42.0291  -34.8679 H   0  0  0  0  0  0  0  0  0  0  0  0
   76.9471  -43.1337  -33.4905 H   0  0  0  0  0  0  0  0  0  0  0  0
   79.2168  -42.3017  -32.8378 H   0  0  0  0  0  0  0  0  0  0  0  0
   79.2073  -41.1951  -34.2140 H   0  0  0  0  0  0  0  0  0  0  0  0
   78.9726  -43.1394  -35.7743 H   0  0  0  0  0  0  0  0  0  0  0  0
   78.9843  -44.2448  -34.3983 H   0  0  0  0  0  0  0  0  0  0  0  0
   81.2670  -43.4277  -33.7609 H   0  0  0  0  0  0  0  0  0  0  0  0
   81.2553  -42.3219  -35.1374 H   0  0  0  0  0  0  0  0  0  0  0  0
   81.0484  -45.3739  -35.3172 H   0  0  0  0  0  0  0  0  0  0  0  0
   82.4861  -44.4021  -35.6866 H   0  0  0  0  0  0  0  0  0  0  0  0
   81.0366  -44.2629  -36.7002 H   0  0  0  0  0  0  0  0  0  0  0  0
  1  2  1  0  0  0  0
  1 82  1  0  0  0  0
  2  3  1  0  0  0  0
  2 83  1  0  0  0  0
  2 84  1  0  0  0  0
  3  4  1  0  0  0  0
  3 85  1  0  0  0  0
  3 86  1  0  0  0  0
  4  5  1  0  0  0  0
  4 87  1  0  0  0  0
  4 88  1  0  0  0  0
  5  6  1  0  0  0  0
  5 89  1  0  0  0  0
  5 90  1  0  0  0  0
  6  7  1  0  0  0  0
  7  8  1  0  0  0  0
  8  9  1  0  0  0  0
  9 10  1  0  0  0  0
 10 11  1  0  0  0  0
 10 91  1  0  0  0  0
 10 92  1  0  0  0  0
 11 12  1  0  0  0  0
 11 93  1  0  0  0  0
 11 94  1  0  0  0  0
 12 13  1  0  0  0  0
 12 95  1  0  0  0  0
 12 96  1  0  0  0  0
 13 14  1  0  0  0  0
 13 97  1  0  0  0  0
 13 98  1  0  0  0  0
 14 15  1  0  0  0  0
 14 99  1  0  0  0  0
 14100  1  0  0  0  0
 15 16  1  0  0  0  0
 15101  1  0  0  0  0
 15102  1  0  0  0  0
 16 17  1  0  0  0  0
 16103  1  0  0  0  0
 16104  1  0  0  0  0
 17 18  1  0  0  0  0
 17105  1  0  0  0  0
 17106  1  0  0  0  0
 18 19  1  0  0  0  0
 18107  1  0  0  0  0
 18108  1  0  0  0  0
 19 20  1  0  0  0  0
 19109  1  0  0  0  0
 19110  1  0  0  0  0
 20 21  1  0  0  0  0
 20111  1  0  0  0  0
 20112  1  0  0  0  0
 21 22  1  0  0  0  0
 21113  1  0  0  0  0
 21114  1  0  0  0  0
 22 23  1  0  0  0  0
 22115  1  0  0  0  0
 22116  1  0  0  0  0
 23 24  1  0  0  0  0
 23117  1  0  0  0  0
 23118  1  0  0  0  0
 24 25  1  0  0  0  0
 24119  1  0  0  0  0
 24120  1  0  0  0  0
 25 26  1  0  0  0  0
 25121  1  0  0  0  0
 25122  1  0  0  0  0
 26 27  1  0  0  0  0
 26123  1  0  0  0  0
 26124  1  0  0  0  0
 27 28  1  0  0  0  0
 27125  1  0  0  0  0
 27126  1  0  0  0  0
 28 29  1  0  0  0  0
 28127  1  0  0  0  0
 28128  1  0  0  0  0
 29 30  1  0  0  0  0
 29129  1  0  0  0  0
 29130  1  0  0  0  0
 30 31  1  0  0  0  0
 30131  1  0  0  0  0
 30132  1  0  0  0  0
 31 32  1  0  0  0  0
 31133  1  0  0  0  0
 31134  1  0  0  0  0
 32 33  1  0  0  0  0
 32135  1  0  0  0  0
 32136  1  0  0  0  0
 33 34  1  0  0  0  0
 33137  1  0  0  0  0
 33138  1  0  0  0  0
 34 35  1  0  0  0  0
 34139  1  0  0  0  0
 34140  1  0  0  0  0
 35 36  1  0  0  0  0
 35141  1  0  0  0  0
 35142  1  0  0  0  0
 36 37  1  0  0  0  0
 36143  1  0  0  0  0
 36144  1  0  0  0  0
 37 38  1  0  0  0  0
 37145  1  0  0  0  0
 37146  1  0  0  0  0
 38 39  1  0  0  0  0
 38147  1  0  0  0  0
 38148  1  0  0  0  0
 39 40  1  0  0  0  0
 39149  1  0  0  0  0
 39150  1  0  0  0  0
 40 41  1  0  0  0  0
 40151  1  0  0  0  0
 40152  1  0  0  0  0
 41 42  1  0  0  0  0
 41153  1  0  0  0  0
 41154  1  0  0  0  0
 42 43  1  0  0  0  0
 42155  1  0  0  0  0
 42156  1  0  0  0  0
 43 44  1  0  0  0  0
 43157  1  0  0  0  0
 43158  1  0  0  0  0
 44 45  1  0  0  0  0
 44159  1  0  0  0  0
 44160  1  0  0  0  0
 45 46  1  0  0  0  0
 45161  1  0  0  0  0
 45162  1  0  0  0  0
 46 47  1  0  0  0  0
 46163  1  0  0  0  0
 46164  1  0  0  0  0
 47 48  1  0  0  0  0
 47165  1  0  0  0  0
 47166  1  0  0  0  0
 48 49  1  0  0  0  0
 48167  1  0  0  0  0
 48168  1  0  0  0  0
 49 50  1  0  0  0  0
 49169  1  0  0  0  0
 49170  1  0  0  0  0
 50 51  1  0  0  0  0
 50171  1  0  0  0  0
 50172  1  0  0  0  0
 51 52  1  0  0  0  0
 51173  1  0  0  0  0
 51174  1  0  0  0  0
 52 53  1  0  0  0  0
 52175  1  0  0  0  0
 52176  1  0  0  0  0
 53 54  1  0  0  0  0
 53177  1  0  0  0  0
 53178  1  0  0  0  0
 54 55  1  0  0  0  0
 54179  1  0  0  0  0
 54180  1  0  0  0  0
 55 56  1  0  0  0  0
 55181  1  0  0  0  0
 55182  1  0  0  0  0
 56 57  1  0  0  0  0
 56183  1  0  0  0  0
 56184  1  0  0  0  0
 57 58  1  0  0  0  0
 57185  1  0  0  0  0
 57186  1  0  0  0  0
 58 59  1  0  0  0  0
 58187  1  0  0  0  0
 58188  1  0  0  0  0
 59 60  1  0  0  0  0
 59189  1  0  0  0  0
 59190  1  0  0  0  0
 60 61  1  0  0  0  0
 60191  1  0  0  0  0
 60192  1  0  0  0  0
 61 62  1  0  0  0  0
 61193  1  0  0  0  0
 61194  1  0  0  0  0
 62 63  1  0  0  0  0
 62195  1  0  0  0  0
 62196  1  0  0  0  0
 63 64  1  0  0  0  0
 63197  1  0  0  0  0
 63198  1  0  0  0  0
 64 65  1  0  0  0  0
 64199  1  0  0  0  0
 64200  1  0  0  0  0
 65 66  1  0  0  0  0
 65201  1  0  0  0  0
 65202  1  0  0  0  0
 66 67  1  0  0  0  0
 66203  1  0  0  0  0
 66204  1  0  0  0  0
 67 68  1  0  0  0  0
 67205  1  0  0  0  0
 67206  1  0  0  0  0
 68 69  1  0  0  0  0
 68207  1  0  0  0  0
 68208  1  0  0  0  0
 69 70  1  0  0  0  0
 69209  1  0  0  0  0
 69210  1  0  0  0  0
 70 71  1  0  0  0  0
 70211  1  0  0  0  0
 70212  1  0  0  0  0
 71 72  1  0  0  0  0
 71213  1  0  0  0  0
 71214  1  0  0  0  0
 72 73  1  0  0  0  0
 72215  1  0  0  0  0
 72216  1  0  0  0  0
 73 74  1  0  0  0  0
 73217  1  0  0  0  0
 73218  1  0  0  0  0
 74 75  1  0  0  0  0
 74219  1  0  0  0  0
 74220  1  0  0  0  0
 75 76  1  0  0  0  0
 75221  1  0  0  0  0
 75222  1  0  0  0  0
 76 77  1  0  0  0  0
 76223  1  0  0  0  0
 76224  1  0  0  0  0
 77 78  1  0  0  0  0
 77225  1  0  0  0  0
 77226  1  0  0  0  0
 78 79  1  0  0  0  0
 78227  1  0  0  0  0
 78228  1  0  0  0  0
 79 80  1  0  0  0  0
 79229  1  0  0  0  0
 79230  1  0  0  0  0
 80 81  1  0  0  0  0
 80231  1  0  0  0  0
 80232  1  0  0  0  0
 81233  1  0  0  0  0
 81234  1  0  0  0  0
 81235  1  0  0  0  0
M  END
$$$$
