
 OpenBabel04232216453D

 50 52  0  0  0  0  0  0  0  0999 V2000
    1.6211   -2.3882   -1.9799 C   0  0  0  0  0  0  0  0  0  0  0  0
    2.9379   -1.7089   -2.3748 C   0  0  0  0  0  0  0  0  0  0  0  0
    2.9630   -0.3236   -1.7943 C   0  0  0  0  0  0  0  0  0  0  0  0
    4.1309    0.3079   -1.6837 C   0  0  0  0  0  0  0  0  0  0  0  0
    4.4880    0.5885   -0.2430 C   0  0  0  0  0  0  0  0  0  0  0  0
    4.8431    0.7029   -2.9633 C   0  0  0  0  0  0  0  0  0  0  0  0
    3.5932    1.0987   -4.0594 C   0  0  0  0  0  0  0  0  0  0  0  0
    2.9769    0.4425   -5.4149 C   0  0  0  0  0  0  0  0  0  0  0  0
    3.4969    0.5739   -6.8942 C   0  0  0  0  0  0  0  0  0  0  0  0
    4.9785    0.8308   -7.1712 C   0  0  0  0  0  0  0  0  0  0  0  0
    5.5664    1.1693   -5.8534 C   0  0  0  0  0  0  0  0  0  0  0  0
    7.0144    1.1849   -5.6165 C   0  0  0  0  0  0  0  0  0  0  0  0
    6.2394    0.7354   -2.9975 C   0  0  0  0  0  0  0  0  0  0  0  0
    7.0716    0.4091   -1.7292 C   0  0  0  0  0  0  0  0  0  0  0  0
    7.2905    0.9360   -4.1337 C   0  0  0  0  0  0  0  0  0  0  0  0
    8.5362    0.3900   -4.0038 C   0  0  0  0  0  0  0  0  0  0  0  0
    8.5615   -1.0041   -4.3106 C   0  0  0  0  0  0  0  0  0  0  0  0
    9.1474   -2.0422   -4.8372 C   0  0  0  0  0  0  0  0  0  0  0  0
    7.7495   -2.1297   -4.2419 C   0  0  0  0  0  0  0  0  0  0  0  0
    6.6983   -2.2064   -5.0671 C   0  0  0  0  0  0  0  0  0  0  0  0
    5.2573   -2.5372   -4.9616 C   0  0  0  0  0  0  0  0  0  0  0  0
    4.1986   -2.5467   -4.1263 C   0  0  0  0  0  0  0  0  0  0  0  0
    4.0349   -2.3057   -2.7825 N   0  0  0  0  0  0  0  0  0  0  0  0
    0.8908   -2.3577   -2.7894 H   0  0  0  0  0  0  0  0  0  0  0  0
    1.1531   -1.8230   -1.1543 H   0  0  0  0  0  0  0  0  0  0  0  0
    1.7622   -3.3922   -1.5810 H   0  0  0  0  0  0  0  0  0  0  0  0
    2.1528   -0.0695   -1.1231 H   0  0  0  0  0  0  0  0  0  0  0  0
    3.6057    0.6152    0.4189 H   0  0  0  0  0  0  0  0  0  0  0  0
    5.0355    1.5173   -0.0791 H   0  0  0  0  0  0  0  0  0  0  0  0
    5.0593   -0.2677    0.1441 H   0  0  0  0  0  0  0  0  0  0  0  0
    3.5791    2.1911   -4.1338 H   0  0  0  0  0  0  0  0  0  0  0  0
    2.6699    0.9688   -3.4806 H   0  0  0  0  0  0  0  0  0  0  0  0
    1.9748    0.9026   -5.4878 H   0  0  0  0  0  0  0  0  0  0  0  0
    2.7357   -0.6095   -5.2402 H   0  0  0  0  0  0  0  0  0  0  0  0
    3.2193   -0.3484   -7.4273 H   0  0  0  0  0  0  0  0  0  0  0  0
    2.9203    1.3585   -7.4028 H   0  0  0  0  0  0  0  0  0  0  0  0
    5.1199    1.6333   -7.9008 H   0  0  0  0  0  0  0  0  0  0  0  0
    5.4478   -0.0729   -7.5785 H   0  0  0  0  0  0  0  0  0  0  0  0
    5.2639    0.3019   -5.2774 H   0  0  0  0  0  0  0  0  0  0  0  0
    5.1574    2.1219   -5.5027 H   0  0  0  0  0  0  0  0  0  0  0  0
    7.4551    2.1341   -5.9304 H   0  0  0  0  0  0  0  0  0  0  0  0
    7.4651    0.4051   -6.2445 H   0  0  0  0  0  0  0  0  0  0  0  0
    6.6032    0.4437   -0.7659 H   0  0  0  0  0  0  0  0  0  0  0  0
    7.8589    1.1612   -1.5962 H   0  0  0  0  0  0  0  0  0  0  0  0
    7.5085   -0.5959   -1.7770 H   0  0  0  0  0  0  0  0  0  0  0  0
    9.0969    0.4766   -3.0755 H   0  0  0  0  0  0  0  0  0  0  0  0
   10.0891   -1.6275   -5.1571 H   0  0  0  0  0  0  0  0  0  0  0  0
    6.9101   -1.9432   -6.1012 H   0  0  0  0  0  0  0  0  0  0  0  0
    4.9378   -2.6934   -5.9863 H   0  0  0  0  0  0  0  0  0  0  0  0
    3.2471   -2.7166   -4.6574 H   0  0  0  0  0  0  0  0  0  0  0  0
  1  2  1  0  0  0  0
  1 24  1  0  0  0  0
  1 25  1  0  0  0  0
  1 26  1  0  0  0  0
  2  3  1  0  0  0  0
  2 23  2  0  0  0  0
  3  4  2  0  0  0  0
  3 27  1  0  0  0  0
  4  5  1  0  0  0  0
  4  6  1  0  0  0  0
  5 28  1  0  0  0  0
  5 29  1  0  0  0  0
  5 30  1  0  0  0  0
  6  7  1  0  0  0  0
  6 13  2  0  0  0  0
  7  8  1  0  0  0  0
  7 31  1  0  0  0  0
  7 32  1  0  0  0  0
  8  9  1  0  0  0  0
  8 33  1  0  0  0  0
  8 34  1  0  0  0  0
  9 10  1  0  0  0  0
  9 35  1  0  0  0  0
  9 36  1  0  0  0  0
 10 11  1  0  0  0  0
 10 37  1  0  0  0  0
 10 38  1  0  0  0  0
 11 12  1  0  0  0  0
 11 39  1  0  0  0  0
 11 40  1  0  0  0  0
 12 15  1  0  0  0  0
 12 41  1  0  0  0  0
 12 42  1  0  0  0  0
 13 14  1  0  0  0  0
 13 15  1  0  0  0  0
 14 43  1  0  0  0  0
 14 44  1  0  0  0  0
 14 45  1  0  0  0  0
 15 16  2  0  0  0  0
 16 17  1  0  0  0  0
 16 46  1  0  0  0  0
 17 18  2  0  0  0  0
 17 19  1  0  0  0  0
 18 19  1  0  0  0  0
 18 47  1  0  0  0  0
 19 20  2  0  0  0  0
 20 21  1  0  0  0  0
 20 48  1  0  0  0  0
 21 22  2  0  0  0  0
 21 49  1  0  0  0  0
 22 23  1  0  0  0  0
 22 50  1  0  0  0  0
M  END
$$$$
