
 OpenBabel04232216493D

102102  0  0  1  0  0  0  0  0999 V2000
    0.8903    0.2014   -0.1085 C   0  0  0  0  0  0  0  0  0  0  0  0
    2.4164    0.1804   -0.0654 C   0  0  3  0  0  0  0  0  0  0  0  0
    2.9333   -1.1955   -0.5069 C   0  0  0  0  0  0  0  0  0  0  0  0
    4.4545   -1.3402   -0.5055 C   0  0  0  0  0  0  0  0  0  0  0  0
    5.1031   -0.5932   -1.6701 C   0  0  0  0  0  0  0  0  0  0  0  0
    5.4709    0.8623   -1.3565 C   0  0  3  0  0  0  0  0  0  0  0  0
    6.8307    0.8985   -0.6363 C   0  0  0  0  0  0  0  0  0  0  0  0
    7.2626    2.3149   -0.2956 C   0  0  0  0  0  0  0  0  0  0  0  0
    8.6053    2.3028    0.4115 C   0  0  0  0  0  0  0  0  0  0  0  0
    9.0018    3.7293    0.7420 C   0  0  0  0  0  0  0  0  0  0  0  0
   10.3406    3.7320    1.4517 C   0  0  0  0  0  0  0  0  0  0  0  0
   10.7404    5.1573    1.7772 C   0  0  0  0  0  0  0  0  0  0  0  0
   12.0805    5.1561    2.4857 C   0  0  0  0  0  0  0  0  0  0  0  0
   12.4855    6.5790    2.8156 C   0  0  0  0  0  0  0  0  0  0  0  0
   13.8263    6.5764    3.5222 C   0  0  0  0  0  0  0  0  0  0  0  0
   14.2322    7.9988    3.8544 C   0  0  0  0  0  0  0  0  0  0  0  0
   15.5743    7.9969    4.5597 C   0  0  0  0  0  0  0  0  0  0  0  0
   15.9807    9.4187    4.8944 C   0  0  0  0  0  0  0  0  0  0  0  0
   17.3222    9.4166    5.6022 C   0  0  0  0  0  0  0  0  0  0  0  0
   17.7279   10.8392    5.9361 C   0  0  0  0  0  0  0  0  0  0  0  0
   19.0702   10.8398    6.6439 C   0  0  0  0  0  0  0  0  0  0  0  0
   19.4751   12.2620    6.9775 C   0  0  0  0  0  0  0  0  0  0  0  0
   20.8163   12.2619    7.6852 C   0  0  0  0  0  0  0  0  0  0  0  0
   21.2255   13.6845    8.0212 C   0  0  0  0  0  0  0  0  0  0  0  0
   22.5636   13.6843    8.7292 C   0  0  0  0  0  0  0  0  0  0  0  0
   22.9744   15.1086    9.0685 C   0  0  0  0  0  0  0  0  0  0  0  0
   24.3162   15.1070    9.7784 C   0  0  0  0  0  0  0  0  0  0  0  0
   24.7274   16.5326   10.1179 C   0  0  0  0  0  0  0  0  0  0  0  0
   26.0727   16.5379   10.8281 C   0  0  0  0  0  0  0  0  0  0  0  0
   26.4802   17.9662   11.1660 C   0  0  0  0  0  0  0  0  0  0  0  0
   27.8251   17.9807   11.8788 C   0  0  0  0  0  0  0  0  0  0  0  0
   28.2321   19.4025   12.2159 C   0  0  0  0  0  0  0  0  0  0  0  0
    4.4181    1.6459   -0.5555 C   0  0  0  0  0  0  0  0  0  0  0  0
    2.9699    1.3391   -0.9086 C   0  0  0  0  0  0  0  0  0  0  0  0
    0.4741   -0.6029    0.5076 H   0  0  0  0  0  0  0  0  0  0  0  0
    0.5207    0.0787   -1.1320 H   0  0  0  0  0  0  0  0  0  0  0  0
    0.5061    1.1498    0.2815 H   0  0  0  0  0  0  0  0  0  0  0  0
    2.7091    0.3347    0.9828 H   0  0  0  0  0  0  0  0  0  0  0  0
    2.5479   -1.4336   -1.5071 H   0  0  0  0  0  0  0  0  0  0  0  0
    2.5214   -1.9558    0.1680 H   0  0  0  0  0  0  0  0  0  0  0  0
    4.6923   -2.4044   -0.6113 H   0  0  0  0  0  0  0  0  0  0  0  0
    4.8712   -1.0275    0.4599 H   0  0  0  0  0  0  0  0  0  0  0  0
    4.4440   -0.6189   -2.5456 H   0  0  0  0  0  0  0  0  0  0  0  0
    6.0093   -1.1329   -1.9763 H   0  0  0  0  0  0  0  0  0  0  0  0
    5.6017    1.3749   -2.3209 H   0  0  0  0  0  0  0  0  0  0  0  0
    7.5944    0.4330   -1.2728 H   0  0  0  0  0  0  0  0  0  0  0  0
    6.7854    0.3036    0.2845 H   0  0  0  0  0  0  0  0  0  0  0  0
    6.5356    2.7956    0.3696 H   0  0  0  0  0  0  0  0  0  0  0  0
    7.3208    2.9187   -1.2078 H   0  0  0  0  0  0  0  0  0  0  0  0
    9.3608    1.8296   -0.2199 H   0  0  0  0  0  0  0  0  0  0  0  0
    8.5324    1.7119    1.3346 H   0  0  0  0  0  0  0  0  0  0  0  0
    8.2391    4.1962    1.3788 H   0  0  0  0  0  0  0  0  0  0  0  0
    9.0648    4.3203   -0.1789 H   0  0  0  0  0  0  0  0  0  0  0  0
   11.1002    3.2648    0.8167 H   0  0  0  0  0  0  0  0  0  0  0  0
   10.2765    3.1399    2.3729 H   0  0  0  0  0  0  0  0  0  0  0  0
    9.9793    5.6238    2.4149 H   0  0  0  0  0  0  0  0  0  0  0  0
   10.8036    5.7485    0.8556 H   0  0  0  0  0  0  0  0  0  0  0  0
   12.8402    4.6885    1.8486 H   0  0  0  0  0  0  0  0  0  0  0  0
   12.0166    4.5622    3.4056 H   0  0  0  0  0  0  0  0  0  0  0  0
   11.7257    7.0465    3.4539 H   0  0  0  0  0  0  0  0  0  0  0  0
   12.5475    7.1736    1.8956 H   0  0  0  0  0  0  0  0  0  0  0  0
   14.5855    6.1094    2.8834 H   0  0  0  0  0  0  0  0  0  0  0  0
   13.7640    5.9803    4.4415 H   0  0  0  0  0  0  0  0  0  0  0  0
   13.4729    8.4646    4.4948 H   0  0  0  0  0  0  0  0  0  0  0  0
   14.2925    8.5947    2.9356 H   0  0  0  0  0  0  0  0  0  0  0  0
   16.3334    7.5318    3.9188 H   0  0  0  0  0  0  0  0  0  0  0  0
   15.5139    7.3991    5.4775 H   0  0  0  0  0  0  0  0  0  0  0  0
   15.2209    9.8846    5.5342 H   0  0  0  0  0  0  0  0  0  0  0  0
   16.0424   10.0161    3.9764 H   0  0  0  0  0  0  0  0  0  0  0  0
   18.0820    8.9510    4.9622 H   0  0  0  0  0  0  0  0  0  0  0  0
   17.2602    8.8195    6.5199 H   0  0  0  0  0  0  0  0  0  0  0  0
   16.9675   11.3046    6.5755 H   0  0  0  0  0  0  0  0  0  0  0  0
   17.7892   11.4364    5.0177 H   0  0  0  0  0  0  0  0  0  0  0  0
   19.8294   10.3739    6.0040 H   0  0  0  0  0  0  0  0  0  0  0  0
   19.0078   10.2423    7.5617 H   0  0  0  0  0  0  0  0  0  0  0  0
   18.7146   12.7275    7.6172 H   0  0  0  0  0  0  0  0  0  0  0  0
   19.5362   12.8592    6.0594 H   0  0  0  0  0  0  0  0  0  0  0  0
   21.5769   11.7968    7.0459 H   0  0  0  0  0  0  0  0  0  0  0  0
   20.7552   11.6652    8.6036 H   0  0  0  0  0  0  0  0  0  0  0  0
   20.4625   14.1511    8.6591 H   0  0  0  0  0  0  0  0  0  0  0  0
   21.2867   14.2821    7.1014 H   0  0  0  0  0  0  0  0  0  0  0  0
   23.3261   13.2199    8.0912 H   0  0  0  0  0  0  0  0  0  0  0  0
   22.5027   13.0868    9.6475 H   0  0  0  0  0  0  0  0  0  0  0  0
   22.2130   15.5717    9.7067 H   0  0  0  0  0  0  0  0  0  0  0  0
   23.0362   15.7048    8.1509 H   0  0  0  0  0  0  0  0  0  0  0  0
   25.0767   14.6427    9.1393 H   0  0  0  0  0  0  0  0  0  0  0  0
   24.2533   14.5095   10.6956 H   0  0  0  0  0  0  0  0  0  0  0  0
   23.9658   16.9948   10.7569 H   0  0  0  0  0  0  0  0  0  0  0  0
   24.7871   17.1289    9.2001 H   0  0  0  0  0  0  0  0  0  0  0  0
   26.8324   16.0741   10.1878 H   0  0  0  0  0  0  0  0  0  0  0  0
   26.0109   15.9400   11.7450 H   0  0  0  0  0  0  0  0  0  0  0  0
   25.7168   18.4266   11.8032 H   0  0  0  0  0  0  0  0  0  0  0  0
   26.5402   18.5598   10.2468 H   0  0  0  0  0  0  0  0  0  0  0  0
   28.5959   17.5267   11.2459 H   0  0  0  0  0  0  0  0  0  0  0  0
   27.7723   17.3935   12.8025 H   0  0  0  0  0  0  0  0  0  0  0  0
   28.3221   20.0114   11.3092 H   0  0  0  0  0  0  0  0  0  0  0  0
   29.1974   19.4139   12.7277 H   0  0  0  0  0  0  0  0  0  0  0  0
   27.4947   19.8775   12.8729 H   0  0  0  0  0  0  0  0  0  0  0  0
    4.5830    2.7173   -0.7289 H   0  0  0  0  0  0  0  0  0  0  0  0
    4.5722    1.4941    0.5227 H   0  0  0  0  0  0  0  0  0  0  0  0
    2.8595    1.1453   -1.9817 H   0  0  0  0  0  0  0  0  0  0  0  0
    2.3852    2.2427   -0.6966 H   0  0  0  0  0  0  0  0  0  0  0  0
  1  2  1  0  0  0  0
  1 35  1  0  0  0  0
  1 36  1  0  0  0  0
  1 37  1  0  0  0  0
  2  3  1  0  0  0  0
  2 34  1  0  0  0  0
  2 38  1  0  0  0  0
  3  4  1  0  0  0  0
  3 39  1  0  0  0  0
  3 40  1  0  0  0  0
  4  5  1  0  0  0  0
  4 41  1  0  0  0  0
  4 42  1  0  0  0  0
  5  6  1  0  0  0  0
  5 43  1  0  0  0  0
  5 44  1  0  0  0  0
  6  7  1  0  0  0  0
  6 33  1  0  0  0  0
  6 45  1  0  0  0  0
  7  8  1  0  0  0  0
  7 46  1  0  0  0  0
  7 47  1  0  0  0  0
  8  9  1  0  0  0  0
  8 48  1  0  0  0  0
  8 49  1  0  0  0  0
  9 10  1  0  0  0  0
  9 50  1  0  0  0  0
  9 51  1  0  0  0  0
 10 11  1  0  0  0  0
 10 52  1  0  0  0  0
 10 53  1  0  0  0  0
 11 12  1  0  0  0  0
 11 54  1  0  0  0  0
 11 55  1  0  0  0  0
 12 13  1  0  0  0  0
 12 56  1  0  0  0  0
 12 57  1  0  0  0  0
 13 14  1  0  0  0  0
 13 58  1  0  0  0  0
 13 59  1  0  0  0  0
 14 15  1  0  0  0  0
 14 60  1  0  0  0  0
 14 61  1  0  0  0  0
 15 16  1  0  0  0  0
 15 62  1  0  0  0  0
 15 63  1  0  0  0  0
 16 17  1  0  0  0  0
 16 64  1  0  0  0  0
 16 65  1  0  0  0  0
 17 18  1  0  0  0  0
 17 66  1  0  0  0  0
 17 67  1  0  0  0  0
 18 19  1  0  0  0  0
 18 68  1  0  0  0  0
 18 69  1  0  0  0  0
 19 20  1  0  0  0  0
 19 70  1  0  0  0  0
 19 71  1  0  0  0  0
 20 21  1  0  0  0  0
 20 72  1  0  0  0  0
 20 73  1  0  0  0  0
 21 22  1  0  0  0  0
 21 74  1  0  0  0  0
 21 75  1  0  0  0  0
 22 23  1  0  0  0  0
 22 76  1  0  0  0  0
 22 77  1  0  0  0  0
 23 24  1  0  0  0  0
 23 78  1  0  0  0  0
 23 79  1  0  0  0  0
 24 25  1  0  0  0  0
 24 80  1  0  0  0  0
 24 81  1  0  0  0  0
 25 26  1  0  0  0  0
 25 82  1  0  0  0  0
 25 83  1  0  0  0  0
 26 27  1  0  0  0  0
 26 84  1  0  0  0  0
 26 85  1  0  0  0  0
 27 28  1  0  0  0  0
 27 86  1  0  0  0  0
 27 87  1  0  0  0  0
 28 29  1  0  0  0  0
 28 88  1  0  0  0  0
 28 89  1  0  0  0  0
 29 30  1  0  0  0  0
 29 90  1  0  0  0  0
 29 91  1  0  0  0  0
 30 31  1  0  0  0  0
 30 92  1  0  0  0  0
 30 93  1  0  0  0  0
 31 32  1  0  0  0  0
 31 94  1  0  0  0  0
 31 95  1  0  0  0  0
 32 96  1  0  0  0  0
 32 97  1  0  0  0  0
 32 98  1  0  0  0  0
 33 34  1  0  0  0  0
 33 99  1  0  0  0  0
 33100  1  0  0  0  0
 34101  1  0  0  0  0
 34102  1  0  0  0  0
M  END
$$$$
