
 OpenBabel04232216513D

134134  0  0  1  0  0  0  0  0999 V2000
  545.9682   -6.6394   34.8636 C   0  0  0  0  0  0  0  0  0  0  0  0
  544.0562   -9.7122   36.3333 C   0  0  0  0  0  0  0  0  0  0  0  0
  541.6877  -12.5634   37.9923 C   0  0  3  0  0  0  0  0  0  0  0  0
  544.4548   -9.8236   36.4168 C   0  0  0  0  0  0  0  0  0  0  0  0
  546.7165   -7.5407   35.2252 C   0  0  0  0  0  0  0  0  0  0  0  0
  549.0662   -4.8727   33.6998 C   0  0  0  0  0  0  0  0  0  0  0  0
  550.9222   -2.6764   32.5492 C   0  0  0  0  0  0  0  0  0  0  0  0
  552.9320   -0.4511   31.6360 C   0  0  0  0  0  0  0  0  0  0  0  0
  553.1591    1.6815   31.9245 C   0  0  0  0  0  0  0  0  0  0  0  0
  553.3566    0.3334   32.6896 C   0  0  0  0  0  0  0  0  0  0  0  0
  551.7097    0.0072   33.0518 C   0  0  0  0  0  0  0  0  0  0  0  0
  551.4756   -1.5310   33.7445 C   0  0  0  0  0  0  0  0  0  0  0  0
  550.4858   -2.3388   34.1229 C   0  0  0  0  0  0  0  0  0  0  0  0
  550.0549   -3.6506   34.8048 C   0  0  0  0  0  0  0  0  0  0  0  0
  548.6417   -3.8123   35.4669 C   0  0  0  0  0  0  0  0  0  0  0  0
  548.6967   -5.2160   35.4889 C   0  0  0  0  0  0  0  0  0  0  0  0
  547.3598   -5.3484   35.9627 C   0  0  0  0  0  0  0  0  0  0  0  0
  548.2702   -6.3230   36.9463 C   0  0  0  0  0  0  0  0  0  0  0  0
  546.7124   -6.4185   37.6451 C   0  0  0  0  0  0  0  0  0  0  0  0
  545.8756   -8.1768   37.5127 C   0  0  0  0  0  0  0  0  0  0  0  0
  544.2962   -8.8307   37.8648 C   0  0  0  0  0  0  0  0  0  0  0  0
  544.1514  -10.4250   38.1475 C   0  0  0  0  0  0  0  0  0  0  0  0
  542.8313  -10.6355   38.8675 C   0  0  0  0  0  0  0  0  0  0  0  0
  542.6602  -12.2189   39.2076 C   0  0  0  0  0  0  0  0  0  0  0  0
  541.2969  -12.5269   39.4416 C   0  0  0  0  0  0  0  0  0  0  0  0
  541.2226  -13.8896   39.7481 C   0  0  0  0  0  0  0  0  0  0  0  0
  540.5918  -14.0190   40.9072 C   0  0  0  0  0  0  0  0  0  0  0  0
  540.0221  -15.6364   41.4035 C   0  0  0  0  0  0  0  0  0  0  0  0
  538.7476  -16.1152   42.3416 C   0  0  0  0  0  0  0  0  0  0  0  0
  538.1956  -17.4465   41.8289 C   0  0  0  0  0  0  0  0  0  0  0  0
  537.0199  -17.8207   42.2854 C   0  0  0  0  0  0  0  0  0  0  0  0
  536.9498  -19.0595   42.9192 C   0  0  0  0  0  0  0  0  0  0  0  0
  535.7864  -19.2735   43.7519 C   0  0  0  0  0  0  0  0  0  0  0  0
  535.5847  -20.9676   44.0973 C   0  0  0  0  0  0  0  0  0  0  0  0
  534.3537  -21.2369   44.8148 C   0  0  0  0  0  0  0  0  0  0  0  0
  534.1394  -22.9737   45.1504 C   0  0  0  0  0  0  0  0  0  0  0  0
  534.0258  -23.9092   44.4470 C   0  0  0  0  0  0  0  0  0  0  0  0
  532.8980  -24.6810   45.9739 C   0  0  0  0  0  0  0  0  0  0  0  0
  531.4131  -24.6085   46.8637 C   0  0  0  0  0  0  0  0  0  0  0  0
  531.5189  -25.9824   47.2898 C   0  0  0  0  0  0  0  0  0  0  0  0
  530.0828  -26.3821   47.9902 C   0  0  0  0  0  0  0  0  0  0  0  0
  529.8138  -28.1904   47.9319 C   0  0  0  0  0  0  0  0  0  0  0  0
  528.7200  -27.7326   48.7534 C   0  0  0  0  0  0  0  0  0  0  0  0
  529.7589  -28.9046   48.6385 C   0  0  0  0  0  0  0  0  0  0  0  0
  528.2307  -29.3024   49.6748 C   0  0  0  0  0  0  0  0  0  0  0  0
  527.3459  -31.0069   50.1519 C   0  0  0  0  0  0  0  0  0  0  0  0
  526.0119  -31.2685   50.9699 C   0  0  0  0  0  0  0  0  0  0  0  0
  525.7568  -33.0744   51.2844 C   0  0  0  0  0  0  0  0  0  0  0  0
  524.2620  -33.1570   52.0329 C   0  0  0  0  0  0  0  0  0  0  0  0
  524.1654  -34.9053   52.3857 C   0  0  0  0  0  0  0  0  0  0  0  0
  522.8777  -34.9285   53.1123 C   0  0  0  0  0  0  0  0  0  0  0  0
  523.1161  -36.0936   53.8038 C   0  0  0  0  0  0  0  0  0  0  0  0
  521.6787  -36.5004   54.1909 C   0  0  0  0  0  0  0  0  0  0  0  0
  521.4428  -38.2935   54.5484 C   0  0  0  0  0  0  0  0  0  0  0  0
  519.8693  -38.2340   55.2294 C   0  0  0  0  0  0  0  0  0  0  0  0
  521.0014  -38.5870   54.5849 C   0  0  0  0  0  0  0  0  0  0  0  0
  519.9773  -38.4355   54.0134 C   0  0  0  0  0  0  0  0  0  0  0  0
  521.6302  -36.3321   52.2995 C   0  0  0  0  0  0  0  0  0  0  0  0
  523.4999  -34.1878   50.8183 C   0  0  0  0  0  0  0  0  0  0  0  0
  525.8441  -31.2665   49.0886 C   0  0  0  0  0  0  0  0  0  0  0  0
  527.9978  -28.8067   47.5070 C   0  0  0  0  0  0  0  0  0  0  0  0
  530.7073  -25.8882   45.5453 C   0  0  0  0  0  0  0  0  0  0  0  0
  532.9397  -22.7548   43.9582 C   0  0  0  0  0  0  0  0  0  0  0  0
  535.8638  -19.1957   41.9490 C   0  0  0  0  0  0  0  0  0  0  0  0
  538.9695  -16.0480   39.9243 C   0  0  0  0  0  3  0  0  0  0  0  0
  547.5246   -4.7681   33.9230 H   0  0  0  0  0  0  0  0  0  0  0  0
  547.5457   -4.7439   34.0109 H   0  0  0  0  0  0  0  0  0  0  0  0
  547.5299   -4.7523   33.9651 H   0  0  0  0  0  0  0  0  0  0  0  0
  545.7504   -8.3637   35.2111 H   0  0  0  0  0  0  0  0  0  0  0  0
  545.6445   -8.3148   35.0832 H   0  0  0  0  0  0  0  0  0  0  0  0
  542.8498  -10.9701   37.1356 H   0  0  0  0  0  0  0  0  0  0  0  0
  545.3481   -7.6905   35.8044 H   0  0  0  0  0  0  0  0  0  0  0  0
  548.0128   -5.7417   34.1790 H   0  0  0  0  0  0  0  0  0  0  0  0
  550.5429   -3.1136   32.6320 H   0  0  0  0  0  0  0  0  0  0  0  0
  552.3142   -0.7601   31.6658 H   0  0  0  0  0  0  0  0  0  0  0  0
  554.8756    0.7681   31.0190 H   0  0  0  0  0  0  0  0  0  0  0  0
  552.1604    2.2808   31.2332 H   0  0  0  0  0  0  0  0  0  0  0  0
  552.9821   -0.6140   32.7944 H   0  0  0  0  0  0  0  0  0  0  0  0
  550.7110    0.5370   32.2559 H   0  0  0  0  0  0  0  0  0  0  0  0
  551.9475   -1.9354   34.3495 H   0  0  0  0  0  0  0  0  0  0  0  0
  549.4415   -1.4253   33.4049 H   0  0  0  0  0  0  0  0  0  0  0  0
  549.4868   -2.9441   34.3847 H   0  0  0  0  0  0  0  0  0  0  0  0
  547.8037   -3.0561   34.6138 H   0  0  0  0  0  0  0  0  0  0  0  0
  548.7725   -6.1820   35.3400 H   0  0  0  0  0  0  0  0  0  0  0  0
  546.3545   -4.7253   35.3315 H   0  0  0  0  0  0  0  0  0  0  0  0
  547.5822   -5.6219   37.7043 H   0  0  0  0  0  0  0  0  0  0  0  0
  545.3263   -5.5663   37.5438 H   0  0  0  0  0  0  0  0  0  0  0  0
  546.3202   -9.3700   36.9497 H   0  0  0  0  0  0  0  0  0  0  0  0
  543.4416   -8.2639   37.3077 H   0  0  0  0  0  0  0  0  0  0  0  0
  544.4291  -11.1720   37.3093 H   0  0  0  0  0  0  0  0  0  0  0  0
  541.9996  -10.0319   38.3154 H   0  0  0  0  0  0  0  0  0  0  0  0
  542.8503  -13.2277   38.2518 H   0  0  0  0  0  0  0  0  0  0  0  0
  540.5557  -11.8034   39.3112 H   0  0  0  0  0  0  0  0  0  0  0  0
  541.3729  -14.7428   39.1611 H   0  0  0  0  0  0  0  0  0  0  0  0
  539.2479  -13.5620   40.4651 H   0  0  0  0  0  0  0  0  0  0  0  0
  539.0165  -15.4644   41.2946 H   0  0  0  0  0  0  0  0  0  0  0  0
  537.6964  -15.4045   41.5089 H   0  0  0  0  0  0  0  0  0  0  0  0
  538.9572  -17.8569   41.1935 H   0  0  0  0  0  0  0  0  0  0  0  0
  536.2261  -17.0946   42.3483 H   0  0  0  0  0  0  0  0  0  0  0  0
  537.5999  -19.8229   43.0609 H   0  0  0  0  0  0  0  0  0  0  0  0
  534.7739  -18.8244   43.3888 H   0  0  0  0  0  0  0  0  0  0  0  0
  535.2851  -21.8843   43.4080 H   0  0  0  0  0  0  0  0  0  0  0  0
  533.3426  -20.6271   44.4070 H   0  0  0  0  0  0  0  0  0  0  0  0
  534.9176  -23.4619   44.9733 H   0  0  0  0  0  0  0  0  0  0  0  0
  532.6075  -22.5645   44.9516 H   0  0  0  0  0  0  0  0  0  0  0  0
  532.6793  -23.7531   45.7065 H   0  0  0  0  0  0  0  0  0  0  0  0
  530.4313  -24.1334   46.4280 H   0  0  0  0  0  0  0  0  0  0  0  0
  531.3674  -26.9808   47.0602 H   0  0  0  0  0  0  0  0  0  0  0  0
  529.0127  -25.8896   47.4583 H   0  0  0  0  0  0  0  0  0  0  0  0
  530.1266  -29.2366   46.8105 H   0  0  0  0  0  0  0  0  0  0  0  0
  527.5508  -27.6632   48.4497 H   0  0  0  0  0  0  0  0  0  0  0  0
  531.1533  -27.9352   48.1365 H   0  0  0  0  0  0  0  0  0  0  0  0
  526.6267  -28.9142   49.9449 H   0  0  0  0  0  0  0  0  0  0  0  0
  527.5080  -32.1743   50.2909 H   0  0  0  0  0  0  0  0  0  0  0  0
  524.6754  -31.0867   50.5069 H   0  0  0  0  0  0  0  0  0  0  0  0
  525.6518  -33.9368   51.7194 H   0  0  0  0  0  0  0  0  0  0  0  0
  523.2059  -32.8844   51.4981 H   0  0  0  0  0  0  0  0  0  0  0  0
  524.1883  -35.8549   52.5687 H   0  0  0  0  0  0  0  0  0  0  0  0
  521.7211  -34.5781   52.6072 H   0  0  0  0  0  0  0  0  0  0  0  0
  523.1177  -37.3787   53.6836 H   0  0  0  0  0  0  0  0  0  0  0  0
  520.4026  -36.1089   53.6189 H   0  0  0  0  0  0  0  0  0  0  0  0
  520.9424  -39.5426   55.5635 H   0  0  0  0  0  0  0  0  0  0  0  0
  518.7723  -38.0369   54.6316 H   0  0  0  0  0  0  0  0  0  0  0  0
  520.2886  -37.2287   55.0098 H   0  0  0  0  0  0  0  0  0  0  0  0
  518.2792  -39.5845   55.3518 H   0  0  0  0  0  0  0  0  0  0  0  0
  519.8659  -38.0193   53.3332 H   0  0  0  0  0  0  0  0  0  0  0  0
  521.9366  -35.9317   52.0216 H   0  0  0  0  0  0  0  0  0  0  0  0
  524.3888  -33.2679   50.3121 H   0  0  0  0  0  0  0  0  0  0  0  0
  526.5477  -30.6412   48.7047 H   0  0  0  0  0  0  0  0  0  0  0  0
  529.1620  -27.4869   46.7057 H   0  0  0  0  0  0  0  0  0  0  0  0
  531.4993  -24.6103   45.0424 H   0  0  0  0  0  0  0  0  0  0  0  0
  534.4650  -20.9581   42.8769 H   0  0  0  0  0  0  0  0  0  0  0  0
  534.4735  -20.9044   42.9593 H   0  0  0  0  0  0  0  0  0  0  0  0
  539.3840  -14.4861   39.4493 H   0  0  0  0  0  0  0  0  0  0  0  0
  1  2  1  0  0  0  0
  1 66  1  0  0  0  0
  1 67  1  0  0  0  0
  1 68  1  0  0  0  0
  2  3  1  0  0  0  0
  2 69  1  0  0  0  0
  2 70  1  0  0  0  0
  3  4  1  0  0  0  0
  3 65  1  0  0  0  0
  3 71  1  0  0  0  0
  4  5  2  3  0  0  0
  4 72  1  0  0  0  0
  5  6  1  0  0  0  0
  5 73  1  0  0  0  0
  6  7  2  3  0  0  0
  6 74  1  0  0  0  0
  7  8  1  0  0  0  0
  7 75  1  0  0  0  0
  8  9  2  3  0  0  0
  8 76  1  0  0  0  0
  9 10  1  0  0  0  0
  9 77  1  0  0  0  0
 10 11  2  3  0  0  0
 10 78  1  0  0  0  0
 11 12  1  0  0  0  0
 11 79  1  0  0  0  0
 12 13  2  3  0  0  0
 12 80  1  0  0  0  0
 13 14  1  0  0  0  0
 13 81  1  0  0  0  0
 14 15  2  3  0  0  0
 14 82  1  0  0  0  0
 15 16  1  0  0  0  0
 15 83  1  0  0  0  0
 16 17  2  3  0  0  0
 16 84  1  0  0  0  0
 17 18  1  0  0  0  0
 17 85  1  0  0  0  0
 18 19  2  3  0  0  0
 18 86  1  0  0  0  0
 19 20  1  0  0  0  0
 19 87  1  0  0  0  0
 20 21  2  3  0  0  0
 20 88  1  0  0  0  0
 21 22  1  0  0  0  0
 21 89  1  0  0  0  0
 22 23  2  3  0  0  0
 22 90  1  0  0  0  0
 23 24  1  0  0  0  0
 23 91  1  0  0  0  0
 24 25  2  3  0  0  0
 24 92  1  0  0  0  0
 25 26  1  0  0  0  0
 25 93  1  0  0  0  0
 26 27  2  3  0  0  0
 26 94  1  0  0  0  0
 27 28  1  0  0  0  0
 27 95  1  0  0  0  0
 28 29  2  3  0  0  0
 28 96  1  0  0  0  0
 29 30  1  0  0  0  0
 29 97  1  0  0  0  0
 30 31  2  3  0  0  0
 30 98  1  0  0  0  0
 31 32  1  0  0  0  0
 31 99  1  0  0  0  0
 32 33  2  3  0  0  0
 32100  1  0  0  0  0
 33 34  1  0  0  0  0
 33101  1  0  0  0  0
 34 35  2  3  0  0  0
 34102  1  0  0  0  0
 35 36  1  0  0  0  0
 35103  1  0  0  0  0
 36 37  2  3  0  0  0
 36104  1  0  0  0  0
 37 38  1  0  0  0  0
 37105  1  0  0  0  0
 38 39  2  3  0  0  0
 38106  1  0  0  0  0
 39 40  1  0  0  0  0
 39107  1  0  0  0  0
 40 41  2  3  0  0  0
 40108  1  0  0  0  0
 41 42  1  0  0  0  0
 41109  1  0  0  0  0
 42 43  2  3  0  0  0
 42110  1  0  0  0  0
 43 44  1  0  0  0  0
 43111  1  0  0  0  0
 44 45  2  3  0  0  0
 44112  1  0  0  0  0
 45 46  1  0  0  0  0
 45113  1  0  0  0  0
 46 47  2  3  0  0  0
 46114  1  0  0  0  0
 47 48  1  0  0  0  0
 47115  1  0  0  0  0
 48 49  2  3  0  0  0
 48116  1  0  0  0  0
 49 50  1  0  0  0  0
 49117  1  0  0  0  0
 50 51  2  3  0  0  0
 50118  1  0  0  0  0
 51 52  1  0  0  0  0
 51119  1  0  0  0  0
 52 53  2  3  0  0  0
 52120  1  0  0  0  0
 53 54  1  0  0  0  0
 53121  1  0  0  0  0
 54 55  2  3  0  0  0
 54122  1  0  0  0  0
 55 56  1  0  0  0  0
 55123  1  0  0  0  0
 56 57  2  3  0  0  0
 56124  1  0  0  0  0
 57 58  1  0  0  0  0
 57125  1  0  0  0  0
 58 59  2  3  0  0  0
 58126  1  0  0  0  0
 59 60  1  0  0  0  0
 59127  1  0  0  0  0
 60 61  2  3  0  0  0
 60128  1  0  0  0  0
 61 62  1  0  0  0  0
 61129  1  0  0  0  0
 62 63  2  3  0  0  0
 62130  1  0  0  0  0
 63 64  1  0  0  0  0
 63131  1  0  0  0  0
 64 65  1  0  0  0  0
 64132  1  0  0  0  0
 64133  1  0  0  0  0
 65134  1  0  0  0  0
M  END
$$$$
