
 OpenBabel04232216473D

 50 51  0  0  0  0  0  0  0  0999 V2000
    5.1645    0.1891    1.4662 C   0  0  0  0  0  0  0  0  0  0  0  0
    6.5472    0.8316    1.2492 C   0  0  0  0  0  0  0  0  0  0  0  0
    6.9059    1.0822   -0.2358 C   0  0  0  0  0  0  0  0  0  0  0  0
    7.6131    2.2341   -0.3276 C   0  0  0  0  0  0  0  0  0  0  0  0
    8.6852    2.3791    0.6094 N   0  0  0  0  0  0  0  0  0  0  0  0
   10.2147    2.3144    0.4573 C   0  0  0  0  0  0  0  0  0  0  0  0
   11.1896    3.4815   -0.1259 C   0  0  0  0  0  0  0  0  0  0  0  0
   11.3465    4.9590    0.4320 C   0  0  0  0  0  0  0  0  0  0  0  0
   12.5745    5.8650    0.0721 C   0  0  0  0  0  0  0  0  0  0  0  0
   12.8745    6.2772   -1.3800 C   0  0  0  0  0  0  0  0  0  0  0  0
   11.8234    7.0726   -2.1647 C   0  0  0  0  0  0  0  0  0  0  0  0
   11.5753    8.5049   -1.7040 C   0  0  0  0  0  0  0  0  0  0  0  0
    6.6753    3.4981   -0.2667 C   0  0  0  0  0  0  0  0  0  0  0  0
    5.3345    3.3817    0.4802 C   0  0  0  0  0  0  0  0  0  0  0  0
    7.2919    4.7137   -0.2201 C   0  0  0  0  0  0  0  0  0  0  0  0
    7.5476    5.2626    1.1593 C   0  0  0  0  0  0  0  0  0  0  0  0
    6.5366    6.1149    1.8506 C   0  0  0  0  0  0  0  0  0  0  0  0
    8.5362    4.7209    1.9064 C   0  0  0  0  0  0  0  0  0  0  0  0
    8.2837    3.4460    2.6452 C   0  0  0  0  0  0  0  0  0  0  0  0
    8.1041    3.6283    3.9868 O   0  0  0  0  0  0  0  0  0  0  0  0
    8.1704    2.2830    1.9363 C   0  0  0  0  0  0  0  0  0  0  0  0
    7.1940    1.3188    2.2740 N   0  0  0  0  0  0  0  0  0  0  0  0
    4.5105    0.9118    1.9777 H   0  0  0  0  0  0  0  0  0  0  0  0
    5.2060   -0.7216    2.0630 H   0  0  0  0  0  0  0  0  0  0  0  0
    4.6673   -0.0371    0.5135 H   0  0  0  0  0  0  0  0  0  0  0  0
    6.0503    0.9132   -0.8855 H   0  0  0  0  0  0  0  0  0  0  0  0
   10.4485    1.4018   -0.1026 H   0  0  0  0  0  0  0  0  0  0  0  0
   10.6133    2.1187    1.4664 H   0  0  0  0  0  0  0  0  0  0  0  0
   11.0540    3.5446   -1.2058 H   0  0  0  0  0  0  0  0  0  0  0  0
   12.1991    3.0594    0.0349 H   0  0  0  0  0  0  0  0  0  0  0  0
   11.3827    4.9019    1.5307 H   0  0  0  0  0  0  0  0  0  0  0  0
   10.4795    5.5587    0.1437 H   0  0  0  0  0  0  0  0  0  0  0  0
   13.4821    5.3984    0.4719 H   0  0  0  0  0  0  0  0  0  0  0  0
   12.4673    6.8007    0.6459 H   0  0  0  0  0  0  0  0  0  0  0  0
   13.1213    5.3762   -1.9495 H   0  0  0  0  0  0  0  0  0  0  0  0
   13.7962    6.8841   -1.3692 H   0  0  0  0  0  0  0  0  0  0  0  0
   10.8772    6.5269   -2.1823 H   0  0  0  0  0  0  0  0  0  0  0  0
   12.1669    7.1347   -3.2063 H   0  0  0  0  0  0  0  0  0  0  0  0
   11.2243    8.5446   -0.6696 H   0  0  0  0  0  0  0  0  0  0  0  0
   10.8062    8.9669   -2.3347 H   0  0  0  0  0  0  0  0  0  0  0  0
   12.4757    9.1227   -1.7950 H   0  0  0  0  0  0  0  0  0  0  0  0
    4.6839    2.5982    0.0825 H   0  0  0  0  0  0  0  0  0  0  0  0
    4.7506    4.3017    0.3802 H   0  0  0  0  0  0  0  0  0  0  0  0
    5.4663    3.2189    1.5589 H   0  0  0  0  0  0  0  0  0  0  0  0
    8.1873    4.7862   -0.8346 H   0  0  0  0  0  0  0  0  0  0  0  0
    5.5126    5.9397    1.5323 H   0  0  0  0  0  0  0  0  0  0  0  0
    6.7906    7.1628    1.6676 H   0  0  0  0  0  0  0  0  0  0  0  0
    6.5891    5.9457    2.9350 H   0  0  0  0  0  0  0  0  0  0  0  0
    9.3450    4.4279    1.2609 H   0  0  0  0  0  0  0  0  0  0  0  0
    8.6997    4.3702    4.2097 H   0  0  0  0  0  0  0  0  0  0  0  0
  1  2  1  0  0  0  0
  1 23  1  0  0  0  0
  1 24  1  0  0  0  0
  1 25  1  0  0  0  0
  2  3  1  0  0  0  0
  2 22  2  0  0  0  0
  3  4  2  0  0  0  0
  3 26  1  0  0  0  0
  4  5  1  0  0  0  0
  4 13  1  0  0  0  0
  5  6  1  0  0  0  0
  5 21  1  0  0  0  0
  6  7  1  0  0  0  0
  6 27  1  0  0  0  0
  6 28  1  0  0  0  0
  7  8  1  0  0  0  0
  7 29  1  0  0  0  0
  7 30  1  0  0  0  0
  8  9  1  0  0  0  0
  8 31  1  0  0  0  0
  8 32  1  0  0  0  0
  9 10  1  0  0  0  0
  9 33  1  0  0  0  0
  9 34  1  0  0  0  0
 10 11  1  0  0  0  0
 10 35  1  0  0  0  0
 10 36  1  0  0  0  0
 11 12  1  0  0  0  0
 11 37  1  0  0  0  0
 11 38  1  0  0  0  0
 12 39  1  0  0  0  0
 12 40  1  0  0  0  0
 12 41  1  0  0  0  0
 13 14  1  0  0  0  0
 13 15  2  0  0  0  0
 14 42  1  0  0  0  0
 14 43  1  0  0  0  0
 14 44  1  0  0  0  0
 15 16  1  0  0  0  0
 15 45  1  0  0  0  0
 16 17  1  0  0  0  0
 16 18  2  0  0  0  0
 17 46  1  0  0  0  0
 17 47  1  0  0  0  0
 17 48  1  0  0  0  0
 18 19  1  0  0  0  0
 18 49  1  0  0  0  0
 19 20  1  0  0  0  0
 19 21  2  0  0  0  0
 20 50  1  0  0  0  0
 21 22  1  0  0  0  0
M  END
$$$$
