
 OpenBabel04232216393D

 32 32  0  0  0  0  0  0  0  0999 V2000
    7.5062   -2.7902    3.4603 C   0  0  0  0  0  0  0  0  0  0  0  0
    6.7716   -1.5335    3.3272 C   0  0  0  0  0  0  0  0  0  0  0  0
    5.6301   -1.3202    2.6214 C   0  0  0  0  0  0  0  0  0  0  0  0
    5.3891   -1.6836    1.2203 C   0  0  0  0  0  0  0  0  0  0  0  0
    5.7389   -2.8437    0.6419 C   0  0  0  0  0  0  0  0  0  0  0  0
    6.9929   -2.7589   -0.1129 C   0  0  0  0  0  0  0  0  0  0  0  0
    7.9426   -3.6319    0.2410 C   0  0  0  0  0  0  0  0  0  0  0  0
    9.3621   -3.3826    0.2108 C   0  0  0  0  0  0  0  0  0  0  0  0
   10.1398   -4.3305    0.7267 C   0  0  0  0  0  0  0  0  0  0  0  0
   11.4666   -4.1218    1.2761 C   0  0  0  0  0  0  0  0  0  0  0  0
   11.9716   -5.1644    1.9526 C   0  0  0  0  0  0  0  0  0  0  0  0
   12.8059   -5.0494    3.1263 C   0  0  0  0  0  0  0  0  0  0  0  0
   12.4343   -4.3131    4.1960 C   0  0  0  0  0  0  0  0  0  0  0  0
   11.3385   -3.2521    4.3674 C   0  0  0  0  0  0  0  0  0  0  0  0
    9.9060   -3.7008    4.4127 C   0  0  0  0  0  3  0  0  0  0  0  0
    8.7240   -3.0303    3.8920 C   0  0  0  0  0  3  0  0  0  0  0  0
    6.8118   -3.6223    3.5855 H   0  0  0  0  0  0  0  0  0  0  0  0
    7.0599   -0.7554    4.0300 H   0  0  0  0  0  0  0  0  0  0  0  0
    5.0293   -0.4473    2.8778 H   0  0  0  0  0  0  0  0  0  0  0  0
    5.4515   -0.7760    0.6126 H   0  0  0  0  0  0  0  0  0  0  0  0
    5.6127   -3.7700    1.1995 H   0  0  0  0  0  0  0  0  0  0  0  0
    7.2517   -1.8307   -0.6176 H   0  0  0  0  0  0  0  0  0  0  0  0
    7.6481   -4.4847    0.8566 H   0  0  0  0  0  0  0  0  0  0  0  0
    9.7290   -2.3735    0.0254 H   0  0  0  0  0  0  0  0  0  0  0  0
    9.6828   -5.2852    1.0052 H   0  0  0  0  0  0  0  0  0  0  0  0
   11.8222   -3.1150    1.4032 H   0  0  0  0  0  0  0  0  0  0  0  0
   11.5794   -6.1631    1.8218 H   0  0  0  0  0  0  0  0  0  0  0  0
   13.6418   -5.7230    3.1767 H   0  0  0  0  0  0  0  0  0  0  0  0
   13.0723   -4.4350    5.0752 H   0  0  0  0  0  0  0  0  0  0  0  0
   11.5428   -2.7763    5.3348 H   0  0  0  0  0  0  0  0  0  0  0  0
   11.4826   -2.4445    3.6122 H   0  0  0  0  0  0  0  0  0  0  0  0
    9.6915   -4.5306    5.0843 H   0  0  0  0  0  0  0  0  0  0  0  0
  1  2  1  0  0  0  0
  1 16  2  3  0  0  0
  1 17  1  0  0  0  0
  2  3  2  3  0  0  0
  2 18  1  0  0  0  0
  3  4  1  0  0  0  0
  3 19  1  0  0  0  0
  4  5  2  3  0  0  0
  4 20  1  0  0  0  0
  5  6  1  0  0  0  0
  5 21  1  0  0  0  0
  6  7  2  3  0  0  0
  6 22  1  0  0  0  0
  7  8  1  0  0  0  0
  7 23  1  0  0  0  0
  8  9  2  3  0  0  0
  8 24  1  0  0  0  0
  9 10  1  0  0  0  0
  9 25  1  0  0  0  0
 10 11  2  3  0  0  0
 10 26  1  0  0  0  0
 11 12  1  0  0  0  0
 11 27  1  0  0  0  0
 12 13  2  3  0  0  0
 12 28  1  0  0  0  0
 13 14  1  0  0  0  0
 13 29  1  0  0  0  0
 14 15  1  0  0  0  0
 14 30  1  0  0  0  0
 14 31  1  0  0  0  0
 15 16  1  0  0  0  0
 15 32  1  0  0  0  0
M  END
$$$$
