
 OpenBabel04232216423D

200199  0  0  0  0  0  0  0  0999 V2000
   24.9790  -30.1037    4.2406 C   0  0  0  0  0  0  0  0  0  0  0  0
   25.7916  -29.5586    3.3249 C   0  0  0  0  0  0  0  0  0  0  0  0
   26.3393  -28.1653    3.4680 C   0  0  0  0  0  0  0  0  0  0  0  0
   25.9446  -27.2966    2.3290 N   0  0  0  0  0  0  0  0  0  0  0  0
   26.4636  -26.0156    2.5335 N   0  0  0  0  0  0  0  0  0  0  0  0
   26.0586  -25.1815    1.4635 N   0  0  0  0  0  0  0  0  0  0  0  0
   26.5867  -23.8847    1.6123 N   0  0  0  0  0  0  0  0  0  0  0  0
   28.0113  -23.9318    1.6343 N   0  0  0  0  0  0  0  0  0  0  0  0
   28.5329  -24.4834    0.4110 N   0  0  0  0  0  0  0  0  0  0  0  0
   28.1052  -23.6879   -0.7032 N   0  0  0  0  0  0  0  0  0  0  0  0
   28.6221  -22.3696   -0.5429 N   0  0  0  0  0  0  0  0  0  0  0  0
   30.0524  -22.4149   -0.4866 N   0  0  0  0  0  0  0  0  0  0  0  0
   30.5894  -22.9729   -1.7010 N   0  0  0  0  0  0  0  0  0  0  0  0
   30.1977  -22.2155   -2.8486 N   0  0  0  0  0  0  0  0  0  0  0  0
   30.6614  -20.8790   -2.7219 N   0  0  0  0  0  0  0  0  0  0  0  0
   32.0757  -20.9229   -2.5918 N   0  0  0  0  0  0  0  0  0  0  0  0
   32.6319  -21.5205   -3.7830 N   0  0  0  0  0  0  0  0  0  0  0  0
   32.2241  -20.7940   -4.9517 N   0  0  0  0  0  0  0  0  0  0  0  0
   32.6874  -19.4534   -4.8563 N   0  0  0  0  0  0  0  0  0  0  0  0
   34.1057  -19.4666   -4.7329 N   0  0  0  0  0  0  0  0  0  0  0  0
   34.6849  -20.0997   -5.8871 N   0  0  0  0  0  0  0  0  0  0  0  0
   34.2960  -19.3964   -7.0718 N   0  0  0  0  0  0  0  0  0  0  0  0
   34.7520  -18.0498   -6.9832 N   0  0  0  0  0  0  0  0  0  0  0  0
   36.1798  -18.0324   -6.8415 N   0  0  0  0  0  0  0  0  0  0  0  0
   36.7823  -18.6689   -7.9803 N   0  0  0  0  0  0  0  0  0  0  0  0
   36.4322  -17.9783   -9.1839 N   0  0  0  0  0  0  0  0  0  0  0  0
   36.8531  -16.6291   -9.1341 N   0  0  0  0  0  0  0  0  0  0  0  0
   38.2643  -16.5862   -8.9920 N   0  0  0  0  0  0  0  0  0  0  0  0
   38.8918  -17.2518  -10.0849 N   0  0  0  0  0  0  0  0  0  0  0  0
   38.4924  -16.6276  -11.2883 N   0  0  0  0  0  0  0  0  0  0  0  0
   38.9272  -15.2478  -11.2583 N   0  0  0  0  0  0  0  0  0  0  0  0
   40.3409  -15.1831  -11.0601 N   0  0  0  0  0  0  0  0  0  0  0  0
   41.0086  -15.8224  -12.1555 N   0  0  0  0  0  0  0  0  0  0  0  0
   40.6405  -15.2229  -13.4027 N   0  0  0  0  0  0  0  0  0  0  0  0
   41.0311  -13.8471  -13.3806 N   0  0  0  0  0  0  0  0  0  0  0  0
   42.4436  -13.7570  -13.1452 N   0  0  0  0  0  0  0  0  0  0  0  0
   43.1133  -14.4563  -14.2109 N   0  0  0  0  0  0  0  0  0  0  0  0
   42.7523  -13.8505  -15.4843 N   0  0  0  0  0  0  0  0  0  0  0  0
   43.1343  -12.4627  -15.4707 N   0  0  0  0  0  0  0  0  0  0  0  0
   44.5603  -12.3393  -15.2655 N   0  0  0  0  0  0  0  0  0  0  0  0
   45.2602  -13.0100  -16.3268 N   0  0  0  0  0  0  0  0  0  0  0  0
   44.8981  -12.4237  -17.6115 N   0  0  0  0  0  0  0  0  0  0  0  0
   45.2769  -10.9983  -17.5837 C   0  0  0  0  0  0  0  0  0  0  0  0
   46.7212  -10.8217  -17.3761 N   0  0  0  0  0  0  0  0  0  0  0  0
   47.4383  -11.5250  -18.4345 C   0  0  0  0  0  0  0  0  0  0  0  0
   48.9183  -11.3867  -18.1929 C   0  0  0  0  0  0  0  0  0  0  0  0
   49.6782  -12.0881  -19.3015 C   0  0  0  0  0  0  0  0  0  0  0  0
   51.1690  -11.9450  -19.0741 C   0  0  0  0  0  0  0  0  0  0  0  0
   51.9324  -12.6413  -20.1827 C   0  0  0  0  0  0  0  0  0  0  0  0
   53.4236  -12.4956  -19.9552 C   0  0  0  0  0  0  0  0  0  0  0  0
   54.1871  -13.1918  -21.0636 C   0  0  0  0  0  0  0  0  0  0  0  0
   55.6781  -13.0477  -20.8350 C   0  0  0  0  0  0  0  0  0  0  0  0
   56.4416  -13.7456  -21.9423 C   0  0  0  0  0  0  0  0  0  0  0  0
   57.9325  -13.5998  -21.7147 C   0  0  0  0  0  0  0  0  0  0  0  0
   58.6960  -14.2993  -22.8210 C   0  0  0  0  0  0  0  0  0  0  0  0
   60.1870  -14.1552  -22.5923 C   0  0  0  0  0  0  0  0  0  0  0  0
   60.9504  -14.8531  -23.6996 C   0  0  0  0  0  0  0  0  0  0  0  0
   62.4414  -14.7090  -23.4709 C   0  0  0  0  0  0  0  0  0  0  0  0
   63.2048  -15.4086  -24.5772 C   0  0  0  0  0  0  0  0  0  0  0  0
   64.6958  -15.2645  -24.3485 C   0  0  0  0  0  0  0  0  0  0  0  0
   65.4592  -15.9640  -25.4548 C   0  0  0  0  0  0  0  0  0  0  0  0
   66.9502  -15.8199  -25.2261 C   0  0  0  0  0  0  0  0  0  0  0  0
   67.7136  -16.5195  -26.3324 C   0  0  0  0  0  0  0  0  0  0  0  0
   69.2046  -16.3754  -26.1037 C   0  0  0  0  0  0  0  0  0  0  0  0
   69.9680  -17.0750  -27.2099 C   0  0  0  0  0  0  0  0  0  0  0  0
   71.4590  -16.9309  -26.9813 C   0  0  0  0  0  0  0  0  0  0  0  0
   72.2224  -17.6304  -28.0875 C   0  0  0  0  0  0  0  0  0  0  0  0
   73.7134  -17.4863  -27.8588 C   0  0  0  0  0  0  0  0  0  0  0  0
   74.4768  -18.1842  -28.9662 C   0  0  0  0  0  0  0  0  0  0  0  0
   75.9678  -18.0401  -28.7375 C   0  0  0  0  0  0  0  0  0  0  0  0
   76.7313  -18.7380  -29.8448 C   0  0  0  0  0  0  0  0  0  0  0  0
   78.2222  -18.5939  -29.6161 C   0  0  0  0  0  0  0  0  0  0  0  0
   78.9857  -19.2917  -30.7235 C   0  0  0  0  0  0  0  0  0  0  0  0
   80.4766  -19.1476  -30.4948 C   0  0  0  0  0  0  0  0  0  0  0  0
   81.2401  -19.8438  -31.6032 C   0  0  0  0  0  0  0  0  0  0  0  0
   82.7311  -19.6998  -31.3746 C   0  0  0  0  0  0  0  0  0  0  0  0
   83.4946  -20.3962  -32.4834 C   0  0  0  0  0  0  0  0  0  0  0  0
   84.9862  -20.2544  -32.2546 C   0  0  0  0  0  0  0  0  0  0  0  0
   85.7535  -20.9525  -33.3624 C   0  0  0  0  0  0  0  0  0  0  0  0
   87.2408  -20.8087  -33.1304 C   0  0  0  0  0  0  0  0  0  0  0  0
   24.5799  -31.1004    4.1091 H   0  0  0  0  0  0  0  0  0  0  0  0
   24.6924  -29.5230    5.1130 H   0  0  0  0  0  0  0  0  0  0  0  0
   26.0707  -30.1082    2.4375 H   0  0  0  0  0  0  0  0  0  0  0  0
   27.4380  -28.2184    3.5035 H   0  0  0  0  0  0  0  0  0  0  0  0
   26.0007  -27.7146    4.4106 H   0  0  0  0  0  0  0  0  0  0  0  0
   24.9304  -27.2245    2.3150 H   0  0  0  0  0  0  0  0  0  0  0  0
   27.4819  -26.1017    2.5682 H   0  0  0  0  0  0  0  0  0  0  0  0
   25.0546  -25.1233    1.3866 H   0  0  0  0  0  0  0  0  0  0  0  0
   26.2669  -23.4459    2.4622 H   0  0  0  0  0  0  0  0  0  0  0  0
   28.3167  -24.4659    2.4561 H   0  0  0  0  0  0  0  0  0  0  0  0
   28.1555  -25.4211    0.2633 H   0  0  0  0  0  0  0  0  0  0  0  0
   27.0760  -23.6774   -0.7152 H   0  0  0  0  0  0  0  0  0  0  0  0
   28.3065  -21.9664    0.3295 H   0  0  0  0  0  0  0  0  0  0  0  0
   30.3662  -22.9985    0.2800 H   0  0  0  0  0  0  0  0  0  0  0  0
   30.2384  -23.9271   -1.7946 H   0  0  0  0  0  0  0  0  0  0  0  0
   29.1777  -22.2160   -2.9108 H   0  0  0  0  0  0  0  0  0  0  0  0
   30.2964  -20.4816   -1.8605 H   0  0  0  0  0  0  0  0  0  0  0  0
   32.2983  -21.4798   -1.7524 H   0  0  0  0  0  0  0  0  0  0  0  0
   32.2551  -22.4681   -3.8651 H   0  0  0  0  0  0  0  0  0  0  0  0
   31.2099  -20.7792   -5.0047 H   0  0  0  0  0  0  0  0  0  0  0  0
   32.3015  -19.0298   -4.0199 H   0  0  0  0  0  0  0  0  0  0  0  0
   34.3408  -19.9906   -3.8759 H   0  0  0  0  0  0  0  0  0  0  0  0
   34.3355  -21.0514   -5.9665 H   0  0  0  0  0  0  0  0  0  0  0  0
   33.2825  -19.3824   -7.1466 H   0  0  0  0  0  0  0  0  0  0  0  0
   34.2985  -17.6164   -6.1639 H   0  0  0  0  0  0  0  0  0  0  0  0
   36.4406  -18.5333   -5.9814 H   0  0  0  0  0  0  0  0  0  0  0  0
   36.4637  -19.6294   -8.0756 H   0  0  0  0  0  0  0  0  0  0  0  0
   35.4226  -17.9885   -9.3068 H   0  0  0  0  0  0  0  0  0  0  0  0
   36.4280  -16.1632   -8.3413 H   0  0  0  0  0  0  0  0  0  0  0  0
   38.5198  -17.0753   -8.1389 H   0  0  0  0  0  0  0  0  0  0  0  0
   38.5534  -18.2205  -10.0884 H   0  0  0  0  0  0  0  0  0  0  0  0
   37.4745  -16.6851  -11.3771 H   0  0  0  0  0  0  0  0  0  0  0  0
   38.5005  -14.7985  -10.4530 H   0  0  0  0  0  0  0  0  0  0  0  0
   40.5938  -15.6633  -10.2007 H   0  0  0  0  0  0  0  0  0  0  0  0
   40.7232  -16.7978  -12.1846 H   0  0  0  0  0  0  0  0  0  0  0  0
   39.6235  -15.2932  -13.5132 H   0  0  0  0  0  0  0  0  0  0  0  0
   40.5184  -13.3928  -12.6129 H   0  0  0  0  0  0  0  0  0  0  0  0
   42.6773  -14.1940  -12.2423 H   0  0  0  0  0  0  0  0  0  0  0  0
   42.8411  -15.4453  -14.2114 H   0  0  0  0  0  0  0  0  0  0  0  0
   41.7314  -13.9320  -15.6233 H   0  0  0  0  0  0  0  0  0  0  0  0
   42.6281  -11.9513  -14.7267 H   0  0  0  0  0  0  0  0  0  0  0  0
   44.8359  -12.7336  -14.3534 H   0  0  0  0  0  0  0  0  0  0  0  0
   45.0234  -14.0117  -16.3314 H   0  0  0  0  0  0  0  0  0  0  0  0
   43.8835  -12.4990  -17.7431 H   0  0  0  0  0  0  0  0  0  0  0  0
   44.7186  -10.4753  -16.7922 H   0  0  0  0  0  0  0  0  0  0  0  0
   44.9689  -10.5380  -18.5245 H   0  0  0  0  0  0  0  0  0  0  0  0
   46.9650  -11.2486  -16.4756 H   0  0  0  0  0  0  0  0  0  0  0  0
   47.1590  -11.0925  -19.3979 H   0  0  0  0  0  0  0  0  0  0  0  0
   47.1770  -12.5939  -18.4503 H   0  0  0  0  0  0  0  0  0  0  0  0
   49.1865  -11.8274  -17.2249 H   0  0  0  0  0  0  0  0  0  0  0  0
   49.1862  -10.3255  -18.1711 H   0  0  0  0  0  0  0  0  0  0  0  0
   49.4078  -11.6518  -20.2705 H   0  0  0  0  0  0  0  0  0  0  0  0
   49.4077  -13.1508  -19.3256 H   0  0  0  0  0  0  0  0  0  0  0  0
   51.4396  -12.3836  -18.1064 H   0  0  0  0  0  0  0  0  0  0  0  0
   51.4391  -10.8828  -19.0494 H   0  0  0  0  0  0  0  0  0  0  0  0
   51.6613  -12.2039  -21.1508 H   0  0  0  0  0  0  0  0  0  0  0  0
   51.6638  -13.7040  -20.2068 H   0  0  0  0  0  0  0  0  0  0  0  0
   53.6951  -12.9331  -18.9872 H   0  0  0  0  0  0  0  0  0  0  0  0
   53.6925  -11.4330  -19.9312 H   0  0  0  0  0  0  0  0  0  0  0  0
   53.9168  -12.7534  -22.0315 H   0  0  0  0  0  0  0  0  0  0  0  0
   53.9173  -14.2542  -21.0886 H   0  0  0  0  0  0  0  0  0  0  0  0
   55.9483  -13.4849  -19.8665 H   0  0  0  0  0  0  0  0  0  0  0  0
   55.9482  -11.9854  -20.8114 H   0  0  0  0  0  0  0  0  0  0  0  0
   56.1704  -13.3094  -22.9110 H   0  0  0  0  0  0  0  0  0  0  0  0
   56.1725  -14.8082  -21.9649 H   0  0  0  0  0  0  0  0  0  0  0  0
   58.2035  -14.0347  -20.7454 H   0  0  0  0  0  0  0  0  0  0  0  0
   58.2018  -12.5372  -21.6935 H   0  0  0  0  0  0  0  0  0  0  0  0
   58.4261  -13.8635  -23.7901 H   0  0  0  0  0  0  0  0  0  0  0  0
   58.4257  -15.3616  -22.8430 H   0  0  0  0  0  0  0  0  0  0  0  0
   60.4570  -14.5924  -21.6238 H   0  0  0  0  0  0  0  0  0  0  0  0
   60.4571  -13.0929  -22.5688 H   0  0  0  0  0  0  0  0  0  0  0  0
   60.6803  -14.4160  -24.6681 H   0  0  0  0  0  0  0  0  0  0  0  0
   60.6803  -15.9154  -23.7231 H   0  0  0  0  0  0  0  0  0  0  0  0
   62.7112  -15.1449  -22.5018 H   0  0  0  0  0  0  0  0  0  0  0  0
   62.7117  -13.6467  -23.4488 H   0  0  0  0  0  0  0  0  0  0  0  0
   62.9349  -14.9727  -25.5463 H   0  0  0  0  0  0  0  0  0  0  0  0
   62.9345  -16.4709  -24.5993 H   0  0  0  0  0  0  0  0  0  0  0  0
   64.9656  -15.7003  -23.3794 H   0  0  0  0  0  0  0  0  0  0  0  0
   64.9661  -14.2022  -24.3264 H   0  0  0  0  0  0  0  0  0  0  0  0
   65.1893  -15.5282  -26.4239 H   0  0  0  0  0  0  0  0  0  0  0  0
   65.1889  -17.0263  -25.4768 H   0  0  0  0  0  0  0  0  0  0  0  0
   67.2200  -16.2558  -24.2570 H   0  0  0  0  0  0  0  0  0  0  0  0
   67.2205  -14.7576  -25.2040 H   0  0  0  0  0  0  0  0  0  0  0  0
   67.4438  -16.0836  -27.3015 H   0  0  0  0  0  0  0  0  0  0  0  0
   67.4433  -17.5818  -26.3544 H   0  0  0  0  0  0  0  0  0  0  0  0
   69.4745  -16.8113  -25.1345 H   0  0  0  0  0  0  0  0  0  0  0  0
   69.4749  -15.3131  -26.0816 H   0  0  0  0  0  0  0  0  0  0  0  0
   69.6982  -16.6391  -28.1791 H   0  0  0  0  0  0  0  0  0  0  0  0
   69.6977  -18.1373  -27.2320 H   0  0  0  0  0  0  0  0  0  0  0  0
   71.7289  -17.3667  -26.0121 H   0  0  0  0  0  0  0  0  0  0  0  0
   71.7293  -15.8686  -26.9592 H   0  0  0  0  0  0  0  0  0  0  0  0
   71.9526  -17.1946  -29.0566 H   0  0  0  0  0  0  0  0  0  0  0  0
   71.9521  -18.6927  -28.1096 H   0  0  0  0  0  0  0  0  0  0  0  0
   73.9835  -17.9235  -26.8903 H   0  0  0  0  0  0  0  0  0  0  0  0
   73.9835  -16.4240  -27.8354 H   0  0  0  0  0  0  0  0  0  0  0  0
   74.2068  -17.7470  -29.9347 H   0  0  0  0  0  0  0  0  0  0  0  0
   74.2067  -19.2465  -28.9897 H   0  0  0  0  0  0  0  0  0  0  0  0
   76.2379  -18.4773  -27.7690 H   0  0  0  0  0  0  0  0  0  0  0  0
   76.2379  -16.9778  -28.7140 H   0  0  0  0  0  0  0  0  0  0  0  0
   76.4612  -18.3008  -30.8133 H   0  0  0  0  0  0  0  0  0  0  0  0
   76.4611  -19.8003  -29.8683 H   0  0  0  0  0  0  0  0  0  0  0  0
   78.4923  -19.0310  -28.6476 H   0  0  0  0  0  0  0  0  0  0  0  0
   78.4923  -17.5315  -29.5926 H   0  0  0  0  0  0  0  0  0  0  0  0
   78.7156  -18.8546  -31.6920 H   0  0  0  0  0  0  0  0  0  0  0  0
   78.7156  -20.3541  -30.7470 H   0  0  0  0  0  0  0  0  0  0  0  0
   80.7469  -19.5861  -29.5269 H   0  0  0  0  0  0  0  0  0  0  0  0
   80.7465  -18.0853  -30.4699 H   0  0  0  0  0  0  0  0  0  0  0  0
   80.9698  -19.4054  -32.5711 H   0  0  0  0  0  0  0  0  0  0  0  0
   80.9702  -20.9061  -31.6281 H   0  0  0  0  0  0  0  0  0  0  0  0
   83.0013  -20.1382  -30.4067 H   0  0  0  0  0  0  0  0  0  0  0  0
   83.0010  -18.6374  -31.3496 H   0  0  0  0  0  0  0  0  0  0  0  0
   83.2251  -19.9565  -33.4508 H   0  0  0  0  0  0  0  0  0  0  0  0
   83.2234  -21.4581  -32.5089 H   0  0  0  0  0  0  0  0  0  0  0  0
   85.2543  -20.6917  -31.2854 H   0  0  0  0  0  0  0  0  0  0  0  0
   85.2564  -19.1919  -32.2290 H   0  0  0  0  0  0  0  0  0  0  0  0
   85.4879  -20.5142  -34.3308 H   0  0  0  0  0  0  0  0  0  0  0  0
   85.4858  -22.0146  -33.3867 H   0  0  0  0  0  0  0  0  0  0  0  0
   87.5234  -19.7513  -33.1178 H   0  0  0  0  0  0  0  0  0  0  0  0
   87.7956  -21.3103  -33.9263 H   0  0  0  0  0  0  0  0  0  0  0  0
   87.5212  -21.2556  -32.1714 H   0  0  0  0  0  0  0  0  0  0  0  0
  1  2  2  0  0  0  0
  1 81  1  0  0  0  0
  1 82  1  0  0  0  0
  2  3  1  0  0  0  0
  2 83  1  0  0  0  0
  3  4  1  0  0  0  0
  3 84  1  0  0  0  0
  3 85  1  0  0  0  0
  4  5  1  0  0  0  0
  4 86  1  0  0  0  0
  5  6  1  0  0  0  0
  5 87  1  0  0  0  0
  6  7  1  0  0  0  0
  6 88  1  0  0  0  0
  7  8  1  0  0  0  0
  7 89  1  0  0  0  0
  8  9  1  0  0  0  0
  8 90  1  0  0  0  0
  9 10  1  0  0  0  0
  9 91  1  0  0  0  0
 10 11  1  0  0  0  0
 10 92  1  0  0  0  0
 11 12  1  0  0  0  0
 11 93  1  0  0  0  0
 12 13  1  0  0  0  0
 12 94  1  0  0  0  0
 13 14  1  0  0  0  0
 13 95  1  0  0  0  0
 14 15  1  0  0  0  0
 14 96  1  0  0  0  0
 15 16  1  0  0  0  0
 15 97  1  0  0  0  0
 16 17  1  0  0  0  0
 16 98  1  0  0  0  0
 17 18  1  0  0  0  0
 17 99  1  0  0  0  0
 18 19  1  0  0  0  0
 18100  1  0  0  0  0
 19 20  1  0  0  0  0
 19101  1  0  0  0  0
 20 21  1  0  0  0  0
 20102  1  0  0  0  0
 21 22  1  0  0  0  0
 21103  1  0  0  0  0
 22 23  1  0  0  0  0
 22104  1  0  0  0  0
 23 24  1  0  0  0  0
 23105  1  0  0  0  0
 24 25  1  0  0  0  0
 24106  1  0  0  0  0
 25 26  1  0  0  0  0
 25107  1  0  0  0  0
 26 27  1  0  0  0  0
 26108  1  0  0  0  0
 27 28  1  0  0  0  0
 27109  1  0  0  0  0
 28 29  1  0  0  0  0
 28110  1  0  0  0  0
 29 30  1  0  0  0  0
 29111  1  0  0  0  0
 30 31  1  0  0  0  0
 30112  1  0  0  0  0
 31 32  1  0  0  0  0
 31113  1  0  0  0  0
 32 33  1  0  0  0  0
 32114  1  0  0  0  0
 33 34  1  0  0  0  0
 33115  1  0  0  0  0
 34 35  1  0  0  0  0
 34116  1  0  0  0  0
 35 36  1  0  0  0  0
 35117  1  0  0  0  0
 36 37  1  0  0  0  0
 36118  1  0  0  0  0
 37 38  1  0  0  0  0
 37119  1  0  0  0  0
 38 39  1  0  0  0  0
 38120  1  0  0  0  0
 39 40  1  0  0  0  0
 39121  1  0  0  0  0
 40 41  1  0  0  0  0
 40122  1  0  0  0  0
 41 42  1  0  0  0  0
 41123  1  0  0  0  0
 42 43  1  0  0  0  0
 42124  1  0  0  0  0
 43 44  1  0  0  0  0
 43125  1  0  0  0  0
 43126  1  0  0  0  0
 44 45  1  0  0  0  0
 44127  1  0  0  0  0
 45 46  1  0  0  0  0
 45128  1  0  0  0  0
 45129  1  0  0  0  0
 46 47  1  0  0  0  0
 46130  1  0  0  0  0
 46131  1  0  0  0  0
 47 48  1  0  0  0  0
 47132  1  0  0  0  0
 47133  1  0  0  0  0
 48 49  1  0  0  0  0
 48134  1  0  0  0  0
 48135  1  0  0  0  0
 49 50  1  0  0  0  0
 49136  1  0  0  0  0
 49137  1  0  0  0  0
 50 51  1  0  0  0  0
 50138  1  0  0  0  0
 50139  1  0  0  0  0
 51 52  1  0  0  0  0
 51140  1  0  0  0  0
 51141  1  0  0  0  0
 52 53  1  0  0  0  0
 52142  1  0  0  0  0
 52143  1  0  0  0  0
 53 54  1  0  0  0  0
 53144  1  0  0  0  0
 53145  1  0  0  0  0
 54 55  1  0  0  0  0
 54146  1  0  0  0  0
 54147  1  0  0  0  0
 55 56  1  0  0  0  0
 55148  1  0  0  0  0
 55149  1  0  0  0  0
 56 57  1  0  0  0  0
 56150  1  0  0  0  0
 56151  1  0  0  0  0
 57 58  1  0  0  0  0
 57152  1  0  0  0  0
 57153  1  0  0  0  0
 58 59  1  0  0  0  0
 58154  1  0  0  0  0
 58155  1  0  0  0  0
 59 60  1  0  0  0  0
 59156  1  0  0  0  0
 59157  1  0  0  0  0
 60 61  1  0  0  0  0
 60158  1  0  0  0  0
 60159  1  0  0  0  0
 61 62  1  0  0  0  0
 61160  1  0  0  0  0
 61161  1  0  0  0  0
 62 63  1  0  0  0  0
 62162  1  0  0  0  0
 62163  1  0  0  0  0
 63 64  1  0  0  0  0
 63164  1  0  0  0  0
 63165  1  0  0  0  0
 64 65  1  0  0  0  0
 64166  1  0  0  0  0
 64167  1  0  0  0  0
 65 66  1  0  0  0  0
 65168  1  0  0  0  0
 65169  1  0  0  0  0
 66 67  1  0  0  0  0
 66170  1  0  0  0  0
 66171  1  0  0  0  0
 67 68  1  0  0  0  0
 67172  1  0  0  0  0
 67173  1  0  0  0  0
 68 69  1  0  0  0  0
 68174  1  0  0  0  0
 68175  1  0  0  0  0
 69 70  1  0  0  0  0
 69176  1  0  0  0  0
 69177  1  0  0  0  0
 70 71  1  0  0  0  0
 70178  1  0  0  0  0
 70179  1  0  0  0  0
 71 72  1  0  0  0  0
 71180  1  0  0  0  0
 71181  1  0  0  0  0
 72 73  1  0  0  0  0
 72182  1  0  0  0  0
 72183  1  0  0  0  0
 73 74  1  0  0  0  0
 73184  1  0  0  0  0
 73185  1  0  0  0  0
 74 75  1  0  0  0  0
 74186  1  0  0  0  0
 74187  1  0  0  0  0
 75 76  1  0  0  0  0
 75188  1  0  0  0  0
 75189  1  0  0  0  0
 76 77  1  0  0  0  0
 76190  1  0  0  0  0
 76191  1  0  0  0  0
 77 78  1  0  0  0  0
 77192  1  0  0  0  0
 77193  1  0  0  0  0
 78 79  1  0  0  0  0
 78194  1  0  0  0  0
 78195  1  0  0  0  0
 79 80  1  0  0  0  0
 79196  1  0  0  0  0
 79197  1  0  0  0  0
 80198  1  0  0  0  0
 80199  1  0  0  0  0
 80200  1  0  0  0  0
M  END
$$$$
