
 OpenBabel04232216483D

109109  0  0  0  0  0  0  0  0999 V2000
   12.5437    4.6449    6.1573 C   0  0  0  0  0  0  0  0  0  0  0  0
   14.8584    4.5674    6.0422 C   0  0  0  0  0  0  0  0  0  0  0  0
   13.0173    3.5947    5.4157 C   0  0  0  0  0  0  0  0  0  0  0  0
   11.0396    2.6889    4.4309 C   0  0  0  0  0  0  0  0  0  0  0  0
    9.0953    2.8541    3.7807 C   0  0  0  0  0  0  0  0  0  0  0  0
    6.8329    3.5004    3.7247 C   0  0  0  0  0  0  0  0  0  0  0  0
    5.1539    3.7609    4.8834 C   0  0  0  0  0  0  0  0  0  0  0  0
    5.0598    2.7521    6.0534 C   0  0  0  0  0  0  0  0  0  0  0  0
    4.3267    2.9907    7.4214 C   0  0  0  0  0  0  0  0  0  0  0  0
    8.2164    1.9254    2.0352 C   0  0  0  0  0  0  0  0  0  0  0  0
    8.2827    3.1707    2.6083 C   0  0  0  0  0  0  0  0  0  0  0  0
   10.0781    2.9059    2.0492 C   0  0  0  0  0  0  0  0  0  0  0  0
   10.5767    4.2563    3.2472 C   0  0  0  0  0  0  0  0  0  0  0  0
   12.0056    4.4010    2.9553 C   0  0  0  0  0  0  0  0  0  0  0  0
   12.1935    5.9970    4.0812 C   0  0  0  0  0  0  0  0  0  0  0  0
   13.6553    5.6276    4.1598 C   0  0  0  0  0  0  0  0  0  0  0  0
   13.5741    6.5959    5.6420 C   0  0  0  0  0  0  0  0  0  0  0  0
   15.0202    6.6572    5.9065 C   0  0  0  0  0  0  0  0  0  0  0  0
   15.3418    7.5229    6.9766 C   0  0  0  0  0  0  0  0  0  0  0  0
   16.7880    7.5915    7.0679 C   0  0  0  0  0  0  0  0  0  0  0  0
   16.9149    8.6325    8.0199 C   0  0  0  0  0  0  0  0  0  0  0  0
   18.2871    8.4837    7.8174 C   0  0  0  0  0  0  0  0  0  0  0  0
   18.7471    9.5462    8.6307 C   0  0  0  0  0  0  0  0  0  0  0  0
   19.9766    8.9180    8.8883 C   0  0  0  0  0  0  0  0  0  0  0  0
   20.5182   10.0960    9.8188 C   0  0  0  0  0  0  0  0  0  0  0  0
   22.0137   10.3647    9.9073 C   0  0  0  0  0  0  0  0  0  0  0  0
   22.9287   11.2703   10.7171 C   0  0  0  0  0  0  0  0  0  0  0  0
   24.4225   11.3154   10.7880 C   0  0  0  0  0  0  0  0  0  0  0  0
   24.8229   12.3555   11.7901 C   0  0  0  0  0  0  0  0  0  0  0  0
   26.2010   12.5350   12.0251 C   0  0  0  0  0  0  0  0  0  0  0  0
   26.6292   13.5945   13.0282 C   0  0  0  0  0  0  0  0  0  0  0  0
   27.6058   13.1658   12.2141 C   0  0  0  0  0  0  0  0  0  0  0  0
   28.7321   12.6637   12.3634 C   0  0  0  0  0  0  0  0  0  0  0  0
   27.5294   11.1720   11.0285 C   0  0  0  0  0  0  0  0  0  0  0  0
   25.6888    9.9082    9.9444 C   0  0  0  0  0  0  0  0  0  0  0  0
   23.6346    8.7310    9.1233 O   0  0  0  0  0  0  0  0  0  0  0  0
   21.5183    7.6476    8.2482 C   0  0  0  0  0  0  0  0  0  0  0  0
   19.1706    6.4402    7.3867 C   0  0  0  0  0  0  0  0  0  0  0  0
   17.0794    5.3522    6.9433 C   0  0  0  0  0  0  0  0  0  0  0  0
   11.0229    5.0396    5.7228 H   0  0  0  0  0  0  0  0  0  0  0  0
   10.9546    4.4304    6.0741 H   0  0  0  0  0  0  0  0  0  0  0  0
   11.1681    4.9944    5.3192 H   0  0  0  0  0  0  0  0  0  0  0  0
   12.1658    4.4134    4.5728 H   0  0  0  0  0  0  0  0  0  0  0  0
    9.7734    1.9979    3.9860 H   0  0  0  0  0  0  0  0  0  0  0  0
    5.9016    2.4322    3.4151 H   0  0  0  0  0  0  0  0  0  0  0  0
    5.7671    4.1961    2.9261 H   0  0  0  0  0  0  0  0  0  0  0  0
    3.8442    3.8422    4.7502 H   0  0  0  0  0  0  0  0  0  0  0  0
    5.1348    4.7734    5.3227 H   0  0  0  0  0  0  0  0  0  0  0  0
    6.1030    2.7514    6.2839 H   0  0  0  0  0  0  0  0  0  0  0  0
    4.6725    1.7896    5.6991 H   0  0  0  0  0  0  0  0  0  0  0  0
    4.5966    3.9360    7.9035 H   0  0  0  0  0  0  0  0  0  0  0  0
    4.6353    2.1960    8.1310 H   0  0  0  0  0  0  0  0  0  0  0  0
    3.2278    2.9297    7.3893 H   0  0  0  0  0  0  0  0  0  0  0  0
    7.4329    2.2130    0.8169 H   0  0  0  0  0  0  0  0  0  0  0  0
    7.4358    1.0101    2.0572 H   0  0  0  0  0  0  0  0  0  0  0  0
    7.7297    2.4854    4.0129 H   0  0  0  0  0  0  0  0  0  0  0  0
    7.6719    4.1676    2.0535 H   0  0  0  0  0  0  0  0  0  0  0  0
    9.8887    3.1184    1.0082 H   0  0  0  0  0  0  0  0  0  0  0  0
   10.2235    1.6328    2.3751 H   0  0  0  0  0  0  0  0  0  0  0  0
   10.7020    4.0059    4.6369 H   0  0  0  0  0  0  0  0  0  0  0  0
    9.7998    5.0046    3.0638 H   0  0  0  0  0  0  0  0  0  0  0  0
   11.7693    4.4564    1.9568 H   0  0  0  0  0  0  0  0  0  0  0  0
   12.4042    3.1739    3.2960 H   0  0  0  0  0  0  0  0  0  0  0  0
   11.7250    6.2216    5.4103 H   0  0  0  0  0  0  0  0  0  0  0  0
   11.2221    6.4311    3.9212 H   0  0  0  0  0  0  0  0  0  0  0  0
   13.6007    5.5471    3.0752 H   0  0  0  0  0  0  0  0  0  0  0  0
   14.1276    4.3476    4.1344 H   0  0  0  0  0  0  0  0  0  0  0  0
   13.0671    6.1743    6.6677 H   0  0  0  0  0  0  0  0  0  0  0  0
   13.0159    7.5553    5.4543 H   0  0  0  0  0  0  0  0  0  0  0  0
   15.3870    6.6871    4.8473 H   0  0  0  0  0  0  0  0  0  0  0  0
   15.4835    5.8495    6.7170 H   0  0  0  0  0  0  0  0  0  0  0  0
   14.9584    6.8871    7.8228 H   0  0  0  0  0  0  0  0  0  0  0  0
   15.0025    8.3269    6.3726 H   0  0  0  0  0  0  0  0  0  0  0  0
   17.3055    7.6358    5.9883 H   0  0  0  0  0  0  0  0  0  0  0  0
   17.3297    6.7517    7.7611 H   0  0  0  0  0  0  0  0  0  0  0  0
   16.8258    8.1270    9.0270 H   0  0  0  0  0  0  0  0  0  0  0  0
   16.8300    9.5644    7.5086 H   0  0  0  0  0  0  0  0  0  0  0  0
   18.7345    8.4944    6.6070 H   0  0  0  0  0  0  0  0  0  0  0  0
   18.3380    7.4694    8.6472 H   0  0  0  0  0  0  0  0  0  0  0  0
   18.6991    9.1890    9.6674 H   0  0  0  0  0  0  0  0  0  0  0  0
   18.9813   10.5046    8.0214 H   0  0  0  0  0  0  0  0  0  0  0  0
   20.1304    9.0588    7.7938 H   0  0  0  0  0  0  0  0  0  0  0  0
   19.9400    7.7216    9.2403 H   0  0  0  0  0  0  0  0  0  0  0  0
   20.4237    9.6798   10.8104 H   0  0  0  0  0  0  0  0  0  0  0  0
   20.3498   11.0257    9.2561 H   0  0  0  0  0  0  0  0  0  0  0  0
   22.2023   10.6998    8.8178 H   0  0  0  0  0  0  0  0  0  0  0  0
   22.2894    9.3768   10.4371 H   0  0  0  0  0  0  0  0  0  0  0  0
   22.9168   10.8712   11.7300 H   0  0  0  0  0  0  0  0  0  0  0  0
   22.9218   12.2526   10.2710 H   0  0  0  0  0  0  0  0  0  0  0  0
   24.9161   11.6493    9.7522 H   0  0  0  0  0  0  0  0  0  0  0  0
   24.7425   10.3025   11.3493 H   0  0  0  0  0  0  0  0  0  0  0  0
   24.8942   11.8606   12.7596 H   0  0  0  0  0  0  0  0  0  0  0  0
   24.9293   13.2987   11.2584 H   0  0  0  0  0  0  0  0  0  0  0  0
   26.6282   12.8961   10.7839 H   0  0  0  0  0  0  0  0  0  0  0  0
   26.5758   11.3679   12.5817 H   0  0  0  0  0  0  0  0  0  0  0  0
   27.0333   13.0651   13.9513 H   0  0  0  0  0  0  0  0  0  0  0  0
   26.9897   14.5464   12.5814 H   0  0  0  0  0  0  0  0  0  0  0  0
   28.1851   13.6726   11.2451 H   0  0  0  0  0  0  0  0  0  0  0  0
   27.9911   12.0874   13.0105 H   0  0  0  0  0  0  0  0  0  0  0  0
   28.9962   13.3238   13.8276 H   0  0  0  0  0  0  0  0  0  0  0  0
   29.0387   14.2544   12.7111 H   0  0  0  0  0  0  0  0  0  0  0  0
   28.8596   12.0802   10.9761 H   0  0  0  0  0  0  0  0  0  0  0  0
   28.8978   11.3729   11.8098 H   0  0  0  0  0  0  0  0  0  0  0  0
   26.5160   10.3817   11.1553 H   0  0  0  0  0  0  0  0  0  0  0  0
   26.6362   11.1505    9.8092 H   0  0  0  0  0  0  0  0  0  0  0  0
   21.9505    8.6939    8.9695 H   0  0  0  0  0  0  0  0  0  0  0  0
   22.0765    8.9135    7.8959 H   0  0  0  0  0  0  0  0  0  0  0  0
   19.9641    7.4895    7.0680 H   0  0  0  0  0  0  0  0  0  0  0  0
   16.8032    5.5108    5.4216 H   0  0  0  0  0  0  0  0  0  0  0  0
  1  2  1  0  0  0  0
  1 40  1  0  0  0  0
  1 41  1  0  0  0  0
  1 42  1  0  0  0  0
  2  3  2  3  0  0  0
  2 39  1  0  0  0  0
  3  4  1  0  0  0  0
  3 43  1  0  0  0  0
  4  5  2  3  0  0  0
  4 44  1  0  0  0  0
  5  6  1  0  0  0  0
  5 10  1  0  0  0  0
  6  7  1  0  0  0  0
  6 45  1  0  0  0  0
  6 46  1  0  0  0  0
  7  8  1  0  0  0  0
  7 47  1  0  0  0  0
  7 48  1  0  0  0  0
  8  9  1  0  0  0  0
  8 49  1  0  0  0  0
  8 50  1  0  0  0  0
  9 51  1  0  0  0  0
  9 52  1  0  0  0  0
  9 53  1  0  0  0  0
 10 11  1  0  0  0  0
 10 54  1  0  0  0  0
 10 55  1  0  0  0  0
 11 12  1  0  0  0  0
 11 56  1  0  0  0  0
 11 57  1  0  0  0  0
 12 13  1  0  0  0  0
 12 58  1  0  0  0  0
 12 59  1  0  0  0  0
 13 14  1  0  0  0  0
 13 60  1  0  0  0  0
 13 61  1  0  0  0  0
 14 15  1  0  0  0  0
 14 62  1  0  0  0  0
 14 63  1  0  0  0  0
 15 16  1  0  0  0  0
 15 64  1  0  0  0  0
 15 65  1  0  0  0  0
 16 17  1  0  0  0  0
 16 66  1  0  0  0  0
 16 67  1  0  0  0  0
 17 18  1  0  0  0  0
 17 68  1  0  0  0  0
 17 69  1  0  0  0  0
 18 19  1  0  0  0  0
 18 70  1  0  0  0  0
 18 71  1  0  0  0  0
 19 20  1  0  0  0  0
 19 72  1  0  0  0  0
 19 73  1  0  0  0  0
 20 21  1  0  0  0  0
 20 74  1  0  0  0  0
 20 75  1  0  0  0  0
 21 22  1  0  0  0  0
 21 76  1  0  0  0  0
 21 77  1  0  0  0  0
 22 23  1  0  0  0  0
 22 78  1  0  0  0  0
 22 79  1  0  0  0  0
 23 24  1  0  0  0  0
 23 80  1  0  0  0  0
 23 81  1  0  0  0  0
 24 25  1  0  0  0  0
 24 82  1  0  0  0  0
 24 83  1  0  0  0  0
 25 26  1  0  0  0  0
 25 84  1  0  0  0  0
 25 85  1  0  0  0  0
 26 27  1  0  0  0  0
 26 86  1  0  0  0  0
 26 87  1  0  0  0  0
 27 28  1  0  0  0  0
 27 88  1  0  0  0  0
 27 89  1  0  0  0  0
 28 29  1  0  0  0  0
 28 90  1  0  0  0  0
 28 91  1  0  0  0  0
 29 30  1  0  0  0  0
 29 92  1  0  0  0  0
 29 93  1  0  0  0  0
 30 31  1  0  0  0  0
 30 94  1  0  0  0  0
 30 95  1  0  0  0  0
 31 32  1  0  0  0  0
 31 96  1  0  0  0  0
 31 97  1  0  0  0  0
 32 33  1  0  0  0  0
 32 98  1  0  0  0  0
 32 99  1  0  0  0  0
 33 34  1  0  0  0  0
 33100  1  0  0  0  0
 33101  1  0  0  0  0
 34 35  1  0  0  0  0
 34102  1  0  0  0  0
 34103  1  0  0  0  0
 35 36  1  0  0  0  0
 35104  1  0  0  0  0
 35105  1  0  0  0  0
 36 37  1  0  0  0  0
 37 38  1  0  0  0  0
 37106  1  0  0  0  0
 37107  1  0  0  0  0
 38 39  2  3  0  0  0
 38108  1  0  0  0  0
 39109  1  0  0  0  0
M  END
$$$$
