
 OpenBabel04232216443D

 40 41  0  0  0  0  0  0  0  0999 V2000
    0.9181    6.5383    1.6940 C   0  0  0  0  0  0  0  0  0  0  0  0
    1.7818    5.2965    1.6707 C   0  0  0  0  0  0  0  0  0  0  0  0
    3.1547    5.4900    2.3290 C   0  0  0  0  0  0  0  0  0  0  0  0
    3.1924    5.3875    3.5621 O   0  0  0  0  0  0  0  0  0  0  0  0
    4.2551    6.0260    1.5774 N   0  0  0  0  0  0  0  0  0  0  0  0
    4.8039    7.2143    2.1909 C   0  0  0  0  0  0  0  0  0  0  0  0
    3.8424    8.1819    2.1688 F   0  0  0  0  0  0  0  0  0  0  0  0
    5.1374    5.0751    1.0132 C   0  0  0  0  0  0  0  0  0  0  0  0
    4.3965    3.9804    0.3619 C   0  0  0  0  0  0  0  0  0  0  0  0
    6.4826    4.9754    1.1291 C   0  0  0  0  0  0  0  0  0  0  0  0
    7.2211    3.8119    0.7370 C   0  0  0  0  0  0  0  0  0  0  0  0
    8.3911    3.2691    0.8853 C   0  0  0  0  0  0  0  0  0  0  0  0
    9.5052    2.2894    0.7175 C   0  0  0  0  0  0  0  0  0  0  0  0
    7.1431    2.5327    0.1804 C   0  0  0  0  0  0  0  0  0  0  0  0
    6.4970    1.5152    0.7902 C   0  0  0  0  0  0  0  0  0  0  0  0
    5.5099    0.6230    0.1594 C   0  0  0  0  0  0  0  0  0  0  0  0
    4.2072    0.8212    0.4201 C   0  0  0  0  0  0  0  0  0  0  0  0
    2.9887    0.0986    0.1805 C   0  0  0  0  0  0  0  0  0  0  0  0
    1.7550    0.6026    0.4083 C   0  0  0  0  0  0  0  0  0  0  0  0
    1.3060    2.0277    0.6745 C   0  0  0  0  0  0  0  0  0  0  0  0
    1.9339    2.9812    1.2979 N   0  0  0  0  0  0  0  0  0  0  0  0
    1.2284    4.1937    1.2250 N   0  0  0  0  0  0  0  0  0  0  0  0
   -0.1257    6.2821    1.4830 H   0  0  0  0  0  0  0  0  0  0  0  0
    1.2647    7.2663    0.9586 H   0  0  0  0  0  0  0  0  0  0  0  0
    0.9541    6.9867    2.6925 H   0  0  0  0  0  0  0  0  0  0  0  0
    5.6471    7.5974    1.6084 H   0  0  0  0  0  0  0  0  0  0  0  0
    5.0966    7.0392    3.2289 H   0  0  0  0  0  0  0  0  0  0  0  0
    3.4796    4.3150   -0.1121 H   0  0  0  0  0  0  0  0  0  0  0  0
    4.2045    3.3525    1.2231 H   0  0  0  0  0  0  0  0  0  0  0  0
    4.9350    3.4595   -0.4256 H   0  0  0  0  0  0  0  0  0  0  0  0
    7.0679    5.7266    1.6510 H   0  0  0  0  0  0  0  0  0  0  0  0
   10.4615    2.8249    0.8306 H   0  0  0  0  0  0  0  0  0  0  0  0
    9.5411    1.8254   -0.2647 H   0  0  0  0  0  0  0  0  0  0  0  0
    9.4708    1.5187    1.4949 H   0  0  0  0  0  0  0  0  0  0  0  0
    6.4445    1.5080    1.8806 H   0  0  0  0  0  0  0  0  0  0  0  0
    5.8716   -0.2406   -0.3916 H   0  0  0  0  0  0  0  0  0  0  0  0
    3.9754    1.6507    1.0520 H   0  0  0  0  0  0  0  0  0  0  0  0
    3.0882   -0.9508   -0.0895 H   0  0  0  0  0  0  0  0  0  0  0  0
    0.9044   -0.0717    0.3239 H   0  0  0  0  0  0  0  0  0  0  0  0
    0.2997    2.2306    0.2572 H   0  0  0  0  0  0  0  0  0  0  0  0
  1  2  1  0  0  0  0
  1 23  1  0  0  0  0
  1 24  1  0  0  0  0
  1 25  1  0  0  0  0
  2  3  1  0  0  0  0
  2 22  2  3  0  0  0
  3  4  2  0  0  0  0
  3  5  1  0  0  0  0
  5  6  1  0  0  0  0
  5  8  1  0  0  0  0
  6  7  1  0  0  0  0
  6 26  1  0  0  0  0
  6 27  1  0  0  0  0
  8  9  1  0  0  0  0
  8 10  2  3  0  0  0
  9 28  1  0  0  0  0
  9 29  1  0  0  0  0
  9 30  1  0  0  0  0
 10 11  1  0  0  0  0
 10 31  1  0  0  0  0
 11 12  2  0  0  0  0
 11 14  1  0  0  0  0
 12 13  1  0  0  0  0
 12 14  1  0  0  0  0
 13 32  1  0  0  0  0
 13 33  1  0  0  0  0
 13 34  1  0  0  0  0
 14 15  2  3  0  0  0
 15 16  1  0  0  0  0
 15 35  1  0  0  0  0
 16 17  2  3  0  0  0
 16 36  1  0  0  0  0
 17 18  1  0  0  0  0
 17 37  1  0  0  0  0
 18 19  2  3  0  0  0
 18 38  1  0  0  0  0
 19 20  1  0  0  0  0
 19 39  1  0  0  0  0
 20 21  2  3  0  0  0
 20 40  1  0  0  0  0
 21 22  1  0  0  0  0
M  END
$$$$
