
 OpenBabel04232216513D

 54 55  0  0  1  0  0  0  0  0999 V2000
    0.0963   -0.1494    5.3372 C   0  0  0  0  0  0  0  0  0  0  0  0
    1.1430    0.5595    4.4945 C   0  0  0  0  0  0  0  0  0  0  0  0
    2.5755    0.0457    4.7493 C   0  0  3  0  0  0  0  0  0  0  0  0
    2.8503   -1.3714    4.2376 C   0  0  0  0  0  0  0  0  0  0  0  0
    2.8822   -1.4555    2.7148 C   0  0  0  0  0  0  0  0  0  0  0  0
    3.7739   -0.3789    2.0669 C   0  0  0  0  0  0  0  0  0  0  0  0
    3.6852    1.0042    2.6954 C   0  0  0  0  0  0  0  0  0  0  0  0
    3.7141    2.1269    1.9547 C   0  0  0  0  0  0  0  0  0  0  0  0
    3.6886    3.5959    2.3016 C   0  0  0  0  0  0  0  0  0  0  0  0
    3.8062    4.1640    3.7120 C   0  0  0  0  0  0  0  0  0  0  0  0
    4.9724    3.9934    4.7091 C   0  0  0  0  0  0  0  0  0  0  0  0
    4.6423    4.1308    5.8948 O   0  0  0  0  0  0  0  0  0  0  0  0
    6.3018    3.8117    4.2884 N   0  0  0  0  0  0  0  0  0  0  0  0
    7.4908    3.8886    5.1137 C   0  0  0  0  0  0  0  0  0  0  0  0
    7.3420    4.0890    6.4505 C   0  0  0  0  0  0  0  0  0  0  0  0
    8.3105    4.8432    7.1888 C   0  0  0  0  0  0  0  0  0  0  0  0
    9.3672    4.2914    7.7546 C   0  0  0  0  0  0  0  0  0  0  0  0
   10.5114    5.1047    7.9155 N   0  0  0  0  0  0  0  0  0  0  0  0
   11.6765    4.4678    7.5664 C   0  0  0  0  0  0  0  0  0  0  0  0
   12.3667    3.7636    8.2928 O   0  0  0  0  0  0  0  0  0  0  0  0
   11.7927    4.5400    6.2075 O   0  0  0  0  0  0  0  0  0  0  0  0
   11.4033    3.2977    5.6104 C   0  0  0  0  0  0  0  0  0  0  0  0
   10.3381    3.4026    4.4829 C   0  0  0  0  0  0  0  0  0  0  0  0
    8.8738    4.0558    4.3541 C   0  0  0  0  0  0  0  0  0  0  0  0
    3.5674    0.9855    4.1274 C   0  0  0  0  0  3  0  0  0  0  0  0
   -0.8935    0.2745    5.1380 H   0  0  0  0  0  0  0  0  0  0  0  0
    0.3080   -0.0274    6.4027 H   0  0  0  0  0  0  0  0  0  0  0  0
    0.0523   -1.2187    5.1085 H   0  0  0  0  0  0  0  0  0  0  0  0
    1.0914    1.6333    4.7252 H   0  0  0  0  0  0  0  0  0  0  0  0
    0.8717    0.4644    3.4354 H   0  0  0  0  0  0  0  0  0  0  0  0
    2.7546    0.0586    5.8314 H   0  0  0  0  0  0  0  0  0  0  0  0
    2.1155   -2.0797    4.6336 H   0  0  0  0  0  0  0  0  0  0  0  0
    3.8258   -1.6997    4.6238 H   0  0  0  0  0  0  0  0  0  0  0  0
    1.8624   -1.3753    2.3151 H   0  0  0  0  0  0  0  0  0  0  0  0
    3.2502   -2.4444    2.4172 H   0  0  0  0  0  0  0  0  0  0  0  0
    3.5562   -0.3478    0.9922 H   0  0  0  0  0  0  0  0  0  0  0  0
    4.8187   -0.7076    2.1561 H   0  0  0  0  0  0  0  0  0  0  0  0
    3.7175    1.9817    0.8704 H   0  0  0  0  0  0  0  0  0  0  0  0
    2.7132    3.9480    1.9220 H   0  0  0  0  0  0  0  0  0  0  0  0
    4.4329    4.0959    1.6730 H   0  0  0  0  0  0  0  0  0  0  0  0
    2.9026    3.8219    4.2538 H   0  0  0  0  0  0  0  0  0  0  0  0
    3.6554    5.2534    3.6273 H   0  0  0  0  0  0  0  0  0  0  0  0
    6.4465    3.7781    3.2868 H   0  0  0  0  0  0  0  0  0  0  0  0
    6.4195    3.9836    6.9815 H   0  0  0  0  0  0  0  0  0  0  0  0
    8.2015    5.9132    7.1032 H   0  0  0  0  0  0  0  0  0  0  0  0
    9.5255    3.2111    7.8670 H   0  0  0  0  0  0  0  0  0  0  0  0
   10.4369    5.9477    7.3616 H   0  0  0  0  0  0  0  0  0  0  0  0
   11.1429    2.5284    6.3487 H   0  0  0  0  0  0  0  0  0  0  0  0
   12.3324    2.9208    5.1523 H   0  0  0  0  0  0  0  0  0  0  0  0
   10.2664    2.3832    4.0905 H   0  0  0  0  0  0  0  0  0  0  0  0
   10.8974    3.9712    3.7206 H   0  0  0  0  0  0  0  0  0  0  0  0
    8.6229    3.7125    3.3373 H   0  0  0  0  0  0  0  0  0  0  0  0
    9.0231    5.1374    4.2448 H   0  0  0  0  0  0  0  0  0  0  0  0
    3.8558    1.8212    4.7388 H   0  0  0  0  0  0  0  0  0  0  0  0
  1  2  1  0  0  0  0
  1 26  1  0  0  0  0
  1 27  1  0  0  0  0
  1 28  1  0  0  0  0
  2  3  1  0  0  0  0
  2 29  1  0  0  0  0
  2 30  1  0  0  0  0
  3  4  1  0  0  0  0
  3 25  1  0  0  0  0
  3 31  1  0  0  0  0
  4  5  1  0  0  0  0
  4 32  1  0  0  0  0
  4 33  1  0  0  0  0
  5  6  1  0  0  0  0
  5 34  1  0  0  0  0
  5 35  1  0  0  0  0
  6  7  1  0  0  0  0
  6 36  1  0  0  0  0
  6 37  1  0  0  0  0
  7  8  2  3  0  0  0
  7 25  1  0  0  0  0
  8  9  1  0  0  0  0
  8 38  1  0  0  0  0
  9 10  1  0  0  0  0
  9 39  1  0  0  0  0
  9 40  1  0  0  0  0
 10 11  1  0  0  0  0
 10 41  1  0  0  0  0
 10 42  1  0  0  0  0
 11 12  2  0  0  0  0
 11 13  1  0  0  0  0
 13 14  1  0  0  0  0
 13 43  1  0  0  0  0
 14 15  2  3  0  0  0
 14 24  1  0  0  0  0
 15 16  1  0  0  0  0
 15 44  1  0  0  0  0
 16 17  2  3  0  0  0
 16 45  1  0  0  0  0
 17 18  1  0  0  0  0
 17 46  1  0  0  0  0
 18 19  1  0  0  0  0
 18 47  1  0  0  0  0
 19 20  2  0  0  0  0
 19 21  1  0  0  0  0
 21 22  1  0  0  0  0
 22 23  1  0  0  0  0
 22 48  1  0  0  0  0
 22 49  1  0  0  0  0
 23 24  1  0  0  0  0
 23 50  1  0  0  0  0
 23 51  1  0  0  0  0
 24 52  1  0  0  0  0
 24 53  1  0  0  0  0
 25 54  1  0  0  0  0
M  END
$$$$
