
 OpenBabel04232216393D

 21 21  0  0  0  0  0  0  0  0999 V2000
    4.1340   -1.4683    1.6306 C   0  0  0  0  0  0  0  0  0  0  0  0
    3.5074   -0.3323    0.9689 C   0  0  0  0  0  3  0  0  0  0  0  0
    3.1899    0.9198    1.6245 C   0  0  0  0  0  0  0  0  0  0  0  0
    4.1065    1.8975    1.6743 C   0  0  0  0  0  0  0  0  0  0  0  0
    4.3489    2.5281    2.9789 C   0  0  0  0  0  0  0  0  0  0  0  0
    5.6390    2.5000    3.3769 C   0  0  0  0  0  0  0  0  0  0  0  0
    5.9593    1.3958    4.2871 C   0  0  0  0  0  0  0  0  0  0  0  0
    6.9296    0.5433    3.9347 C   0  0  0  0  0  0  0  0  0  0  0  0
    6.8522   -0.8683    4.2153 C   0  0  0  0  0  0  0  0  0  0  0  0
    6.0172   -1.7255    3.5946 C   0  0  0  0  0  0  0  0  0  0  0  0
    5.0495   -1.4429    2.5718 C   0  0  0  0  0  3  0  0  0  0  0  0
    3.6709   -2.4275    1.4155 H   0  0  0  0  0  0  0  0  0  0  0  0
    2.8921   -0.5765    0.1049 H   0  0  0  0  0  0  0  0  0  0  0  0
    2.4009    0.8391    2.3665 H   0  0  0  0  0  0  0  0  0  0  0  0
    4.9391    1.8871    0.9714 H   0  0  0  0  0  0  0  0  0  0  0  0
    3.5813    2.2817    3.7156 H   0  0  0  0  0  0  0  0  0  0  0  0
    6.4130    2.6636    2.6230 H   0  0  0  0  0  0  0  0  0  0  0  0
    5.1791    1.0726    4.9773 H   0  0  0  0  0  0  0  0  0  0  0  0
    7.6920    0.8155    3.2019 H   0  0  0  0  0  0  0  0  0  0  0  0
    7.5724   -1.2525    4.9358 H   0  0  0  0  0  0  0  0  0  0  0  0
    6.0993   -2.7782    3.8649 H   0  0  0  0  0  0  0  0  0  0  0  0
  1  2  1  0  0  0  0
  1 11  2  3  0  0  0
  1 12  1  0  0  0  0
  2  3  1  0  0  0  0
  2 13  1  0  0  0  0
  3  4  2  3  0  0  0
  3 14  1  0  0  0  0
  4  5  1  0  0  0  0
  4 15  1  0  0  0  0
  5  6  2  3  0  0  0
  5 16  1  0  0  0  0
  6  7  1  0  0  0  0
  6 17  1  0  0  0  0
  7  8  2  3  0  0  0
  7 18  1  0  0  0  0
  8  9  1  0  0  0  0
  8 19  1  0  0  0  0
  9 10  2  3  0  0  0
  9 20  1  0  0  0  0
 10 11  1  0  0  0  0
 10 21  1  0  0  0  0
M  END
$$$$
