
 OpenBabel04232216453D

 48 48  0  0  0  0  0  0  0  0999 V2000
    4.9020    2.1106    0.0274 C   0  0  0  0  0  0  0  0  0  0  0  0
    6.1828    2.1866    1.0956 C   0  0  0  0  0  0  0  0  0  0  0  0
    5.3861    1.0747    1.7022 C   0  0  0  0  0  0  0  0  0  0  0  0
    5.4248   -0.2669    1.5544 C   0  0  0  0  0  0  0  0  0  0  0  0
    6.1237   -0.8710    0.2993 C   0  0  0  0  0  0  0  0  0  0  0  0
    5.3795   -0.7743    2.9707 C   0  0  0  0  0  0  0  0  0  0  0  0
    4.5250    0.0217    4.0347 C   0  0  0  0  0  0  0  0  0  0  0  0
    3.0229    0.2498    3.8507 C   0  0  0  0  0  0  0  0  0  0  0  0
    2.2191   -1.0294    3.9139 C   0  0  0  0  0  0  0  0  0  0  0  0
    0.7482   -0.6877    3.7519 C   0  0  0  0  0  0  0  0  0  0  0  0
    6.5828   -1.2284    3.3876 C   0  0  0  0  0  0  0  0  0  0  0  0
    7.4532   -1.7153    2.4643 F   0  0  0  0  0  0  0  0  0  0  0  0
    7.2459   -0.6788    4.5633 C   0  0  0  0  0  0  0  0  0  0  0  0
    8.5599   -0.8632    4.6618 C   0  0  0  0  0  0  0  0  0  0  0  0
    9.4236    0.0438    5.3469 C   0  0  0  0  0  0  0  0  0  0  0  0
   10.5807    0.3778    4.7648 C   0  0  0  0  0  0  0  0  0  0  0  0
   11.2997   -0.2310    3.5791 C   0  0  0  0  0  0  0  0  0  0  0  0
   11.1177    1.5846    5.0618 N   0  0  0  0  0  0  0  0  0  0  0  0
   10.7660    2.5226    4.2649 C   0  0  0  0  0  0  0  0  0  0  0  0
    9.7064    2.8461    3.0810 C   0  0  0  0  0  0  0  0  0  0  0  0
   10.1990    4.0200    2.5987 F   0  0  0  0  0  0  0  0  0  0  0  0
    8.6499    2.3873    2.3376 C   0  0  0  0  0  0  0  0  0  0  0  0
    7.4663    1.7943    1.5264 C   0  0  0  0  0  0  0  0  0  0  0  0
    3.9174    2.2910    0.5432 H   0  0  0  0  0  0  0  0  0  0  0  0
    4.7267    1.1444   -0.4908 H   0  0  0  0  0  0  0  0  0  0  0  0
    4.9106    2.8709   -0.7488 H   0  0  0  0  0  0  0  0  0  0  0  0
    4.6024    1.4967    2.3199 H   0  0  0  0  0  0  0  0  0  0  0  0
    5.3823   -1.1607   -0.4592 H   0  0  0  0  0  0  0  0  0  0  0  0
    6.8006   -1.7167    0.4328 H   0  0  0  0  0  0  0  0  0  0  0  0
    6.7225   -0.1145   -0.2362 H   0  0  0  0  0  0  0  0  0  0  0  0
    4.9625    1.0315    4.1368 H   0  0  0  0  0  0  0  0  0  0  0  0
    4.6644   -0.4071    5.0320 H   0  0  0  0  0  0  0  0  0  0  0  0
    2.7854    0.7818    2.9224 H   0  0  0  0  0  0  0  0  0  0  0  0
    2.6905    0.9212    4.6573 H   0  0  0  0  0  0  0  0  0  0  0  0
    2.3867   -1.5274    4.8753 H   0  0  0  0  0  0  0  0  0  0  0  0
    2.5385   -1.7100    3.1189 H   0  0  0  0  0  0  0  0  0  0  0  0
    0.4051   -0.0611    4.5826 H   0  0  0  0  0  0  0  0  0  0  0  0
    0.1426   -1.5953    3.7258 H   0  0  0  0  0  0  0  0  0  0  0  0
    0.5808   -0.1308    2.8231 H   0  0  0  0  0  0  0  0  0  0  0  0
    6.7710    0.1156    5.1409 H   0  0  0  0  0  0  0  0  0  0  0  0
    9.0433   -1.5286    3.9562 H   0  0  0  0  0  0  0  0  0  0  0  0
    9.0204    0.6783    6.1400 H   0  0  0  0  0  0  0  0  0  0  0  0
   12.3856   -0.1539    3.7235 H   0  0  0  0  0  0  0  0  0  0  0  0
   11.0625   -1.2695    3.3571 H   0  0  0  0  0  0  0  0  0  0  0  0
   11.0686    0.3713    2.6945 H   0  0  0  0  0  0  0  0  0  0  0  0
   11.4591    3.3769    4.4174 H   0  0  0  0  0  0  0  0  0  0  0  0
    8.8516    1.3496    2.6851 H   0  0  0  0  0  0  0  0  0  0  0  0
    7.7340    0.7494    1.3381 H   0  0  0  0  0  0  0  0  0  0  0  0
  1  2  1  0  0  0  0
  1 24  1  0  0  0  0
  1 25  1  0  0  0  0
  1 26  1  0  0  0  0
  2  3  1  0  0  0  0
  2 23  2  0  0  0  0
  3  4  2  0  0  0  0
  3 27  1  0  0  0  0
  4  5  1  0  0  0  0
  4  6  1  0  0  0  0
  5 28  1  0  0  0  0
  5 29  1  0  0  0  0
  5 30  1  0  0  0  0
  6  7  1  0  0  0  0
  6 11  2  0  0  0  0
  7  8  1  0  0  0  0
  7 31  1  0  0  0  0
  7 32  1  0  0  0  0
  8  9  1  0  0  0  0
  8 33  1  0  0  0  0
  8 34  1  0  0  0  0
  9 10  1  0  0  0  0
  9 35  1  0  0  0  0
  9 36  1  0  0  0  0
 10 37  1  0  0  0  0
 10 38  1  0  0  0  0
 10 39  1  0  0  0  0
 11 12  1  0  0  0  0
 11 13  1  0  0  0  0
 13 14  2  0  0  0  0
 13 40  1  0  0  0  0
 14 15  1  0  0  0  0
 14 41  1  0  0  0  0
 15 16  2  0  0  0  0
 15 42  1  0  0  0  0
 16 17  1  0  0  0  0
 16 18  1  0  0  0  0
 17 43  1  0  0  0  0
 17 44  1  0  0  0  0
 17 45  1  0  0  0  0
 18 19  2  0  0  0  0
 19 20  1  0  0  0  0
 19 46  1  0  0  0  0
 20 21  1  0  0  0  0
 20 22  2  0  0  0  0
 22 23  1  0  0  0  0
 22 47  1  0  0  0  0
 23 48  1  0  0  0  0
M  END
$$$$
