
 OpenBabel04232216423D

 43 44  0  0  0  0  0  0  0  0999 V2000
    1.2337    0.0221    3.5666 C   0  0  0  0  0  0  0  0  0  0  0  0
    1.4331    0.7578    2.4600 C   0  0  0  0  0  0  0  0  0  0  0  0
    1.9018    0.3120    1.1902 C   0  0  0  0  0  0  0  0  0  0  0  0
    2.0791   -0.9402    0.6801 C   0  0  0  0  0  0  0  0  0  0  0  0
    2.6987   -0.8794   -0.7119 C   0  0  0  0  0  0  0  0  0  0  0  0
    1.8642   -2.2519    1.2922 N   0  0  0  0  0  0  0  0  0  0  0  0
    2.2765   -3.6123    0.4988 C   0  0  0  0  0  0  0  0  0  0  0  0
    1.4500   -4.9802    0.6755 C   0  0  0  0  0  0  0  0  0  0  0  0
    2.0564   -6.5405    0.7094 C   0  0  0  0  0  0  0  0  0  0  0  0
    2.7651   -6.7606    1.7908 N   0  0  0  0  0  0  0  0  0  0  0  0
    2.2583   -7.8495    2.4835 N   0  0  0  0  0  0  0  0  0  0  0  0
    2.9759   -8.9367    2.4634 C   0  0  0  0  0  0  0  0  0  0  0  0
    4.4926   -8.9630    2.2954 C   0  0  0  0  0  0  0  0  0  0  0  0
    2.2794  -10.1161    2.1416 N   0  0  0  0  0  0  0  0  0  0  0  0
    0.8200  -10.1669    2.4292 C   0  0  0  0  0  0  0  0  0  0  0  0
    2.5171  -10.5405    0.8313 N   0  0  0  0  0  0  0  0  0  0  0  0
    2.8550   -9.5238    0.1402 N   0  0  0  0  0  0  0  0  0  0  0  0
    1.7624   -8.8161   -0.3310 C   0  0  0  0  0  0  0  0  0  0  0  0
    0.9276   -9.8010   -1.1948 C   0  0  0  0  0  0  0  0  0  0  0  0
    1.4128   -7.5500   -0.1186 N   0  0  0  0  0  0  0  0  0  0  0  0
    1.6431   -2.3209    2.6825 C   0  0  0  0  0  0  0  0  0  0  0  0
    1.3960   -1.4060    3.6433 C   0  0  0  0  0  0  0  0  0  0  0  0
    0.9255    0.5404    4.4713 H   0  0  0  0  0  0  0  0  0  0  0  0
    1.3094    1.8569    2.5599 H   0  0  0  0  0  0  0  0  0  0  0  0
    2.1875    1.1791    0.5807 H   0  0  0  0  0  0  0  0  0  0  0  0
    2.8293    0.1504   -1.0863 H   0  0  0  0  0  0  0  0  0  0  0  0
    2.0561   -1.3744   -1.4396 H   0  0  0  0  0  0  0  0  0  0  0  0
    3.6989   -1.3213   -0.7131 H   0  0  0  0  0  0  0  0  0  0  0  0
    3.3484   -3.7579    0.6565 H   0  0  0  0  0  0  0  0  0  0  0  0
    2.1321   -3.3655   -0.5593 H   0  0  0  0  0  0  0  0  0  0  0  0
    0.6655   -4.9964   -0.0897 H   0  0  0  0  0  0  0  0  0  0  0  0
    0.9298   -4.9116    1.6391 H   0  0  0  0  0  0  0  0  0  0  0  0
    4.9668   -8.2124    2.9255 H   0  0  0  0  0  0  0  0  0  0  0  0
    4.7734   -8.7564    1.2569 H   0  0  0  0  0  0  0  0  0  0  0  0
    4.8749   -9.9585    2.5498 H   0  0  0  0  0  0  0  0  0  0  0  0
    0.4685   -9.3415    3.0583 H   0  0  0  0  0  0  0  0  0  0  0  0
    0.5507  -11.1058    2.9183 H   0  0  0  0  0  0  0  0  0  0  0  0
    0.2243  -10.1095    1.5112 H   0  0  0  0  0  0  0  0  0  0  0  0
    1.5848  -10.5813   -1.6257 H   0  0  0  0  0  0  0  0  0  0  0  0
    0.3932   -9.3327   -2.0217 H   0  0  0  0  0  0  0  0  0  0  0  0
    0.2164  -10.3665   -0.5783 H   0  0  0  0  0  0  0  0  0  0  0  0
    1.7183   -3.3448    3.0265 H   0  0  0  0  0  0  0  0  0  0  0  0
    1.2951   -1.7609    4.6676 H   0  0  0  0  0  0  0  0  0  0  0  0
  1  2  2  0  0  0  0
  1 22  1  0  0  0  0
  1 23  1  0  0  0  0
  2  3  1  0  0  0  0
  2 24  1  0  0  0  0
  3  4  2  0  0  0  0
  3 25  1  0  0  0  0
  4  5  1  0  0  0  0
  4  6  1  0  0  0  0
  5 26  1  0  0  0  0
  5 27  1  0  0  0  0
  5 28  1  0  0  0  0
  6  7  1  0  0  0  0
  6 21  1  0  0  0  0
  7  8  1  0  0  0  0
  7 29  1  0  0  0  0
  7 30  1  0  0  0  0
  8  9  1  0  0  0  0
  8 31  1  0  0  0  0
  8 32  1  0  0  0  0
  9 10  2  0  0  0  0
  9 20  1  0  0  0  0
 10 11  1  0  0  0  0
 11 12  2  0  0  0  0
 12 13  1  0  0  0  0
 12 14  1  0  0  0  0
 13 33  1  0  0  0  0
 13 34  1  0  0  0  0
 13 35  1  0  0  0  0
 14 15  1  0  0  0  0
 14 16  1  0  0  0  0
 15 36  1  0  0  0  0
 15 37  1  0  0  0  0
 15 38  1  0  0  0  0
 16 17  2  0  0  0  0
 17 18  1  0  0  0  0
 18 19  1  0  0  0  0
 18 20  2  0  0  0  0
 19 39  1  0  0  0  0
 19 40  1  0  0  0  0
 19 41  1  0  0  0  0
 21 22  2  0  0  0  0
 21 42  1  0  0  0  0
 22 43  1  0  0  0  0
M  END
$$$$
