
 OpenBabel04232216433D

 67 68  0  0  0  0  0  0  0  0999 V2000
   13.3279   -1.1042    6.7555 C   0  0  0  0  0  0  0  0  0  0  0  0
   11.7409   -1.4674    5.6411 C   0  0  0  0  0  0  0  0  0  0  0  0
   10.1139   -1.3340    5.2765 C   0  0  0  0  0  0  0  0  0  0  0  0
    8.5227   -1.1048    4.4890 C   0  0  0  0  0  0  0  0  0  0  0  0
    7.6561   -0.2551    3.7011 C   0  0  0  0  0  0  0  0  0  0  0  0
    7.7507    0.6851    2.5943 C   0  0  0  0  0  0  0  0  0  0  0  0
    7.4931    0.2747    1.1671 C   0  0  0  0  0  0  0  0  0  0  0  0
    8.6008    1.6828    2.7048 C   0  0  0  0  0  0  0  0  0  0  0  0
    9.8912    1.1585    3.1156 C   0  0  0  0  0  0  0  0  0  0  0  0
   10.6033    0.6176    2.0612 O   0  0  0  0  0  0  0  0  0  0  0  0
   11.6382   -0.3722    2.1134 C   0  0  0  0  0  0  0  0  0  0  0  0
   10.0954    1.2653    4.4445 C   0  0  0  0  0  0  0  0  0  0  0  0
    9.0531    1.4970    5.5752 C   0  0  0  0  0  0  0  0  0  0  0  0
   11.4141    1.3241    4.8560 C   0  0  0  0  0  0  0  0  0  0  0  0
   11.7857    1.5182    6.1088 C   0  0  0  0  0  0  0  0  0  0  0  0
   11.0326    1.2876    7.4824 C   0  0  0  0  0  0  0  0  0  0  0  0
   13.2428    1.7744    6.0869 C   0  0  0  0  0  0  0  0  0  0  0  0
   13.4617    2.0367    7.5519 C   0  0  0  0  0  0  0  0  0  0  0  0
   14.7562    1.6179    7.9667 C   0  0  0  0  0  0  0  0  0  0  0  0
   14.6403    0.3346    9.2446 C   0  0  0  0  0  0  0  0  0  0  0  0
   15.3639   -1.2003    8.8321 C   0  0  0  0  0  0  0  0  0  0  0  0
   16.6529   -1.5462    9.4410 C   0  0  0  0  0  0  0  0  0  0  0  0
   18.3151   -1.5749    9.0318 C   0  0  0  0  0  0  0  0  0  0  0  0
   19.3293   -1.4355    9.9582 C   0  0  0  0  0  0  0  0  0  0  0  0
   20.7158   -0.8472    9.8397 C   0  0  0  0  0  0  0  0  0  0  0  0
   20.7959    0.2798   10.5579 C   0  0  0  0  0  0  0  0  0  0  0  0
   20.1347    1.4106    9.8633 C   0  0  0  0  0  0  0  0  0  0  0  0
   18.8992    1.5259    9.1289 C   0  0  0  0  0  0  0  0  0  0  0  0
   17.5000    0.7587    8.3776 C   0  0  0  0  0  0  0  0  0  0  0  0
   16.6070   -0.0578    7.2430 C   0  0  0  0  0  0  0  0  0  0  0  0
   15.0612   -1.1758    7.1671 C   0  0  0  0  0  0  0  0  0  0  0  0
   13.0417   -0.1360    7.0061 H   0  0  0  0  0  0  0  0  0  0  0  0
   12.1330   -1.7363    4.6694 H   0  0  0  0  0  0  0  0  0  0  0  0
    9.9557   -2.2764    4.8192 H   0  0  0  0  0  0  0  0  0  0  0  0
    7.9080   -1.9941    4.5664 H   0  0  0  0  0  0  0  0  0  0  0  0
    6.4964   -0.3438    3.8329 H   0  0  0  0  0  0  0  0  0  0  0  0
    6.4436    0.3179    0.8540 H   0  0  0  0  0  0  0  0  0  0  0  0
    7.8955   -0.7209    0.9830 H   0  0  0  0  0  0  0  0  0  0  0  0
    8.0156    0.9550    0.4728 H   0  0  0  0  0  0  0  0  0  0  0  0
    8.3542    2.4249    3.4845 H   0  0  0  0  0  0  0  0  0  0  0  0
   11.8221   -0.7421    1.0907 H   0  0  0  0  0  0  0  0  0  0  0  0
   11.3939   -1.2667    2.6952 H   0  0  0  0  0  0  0  0  0  0  0  0
   12.5854    0.0669    2.4314 H   0  0  0  0  0  0  0  0  0  0  0  0
    7.9924    1.5555    5.3497 H   0  0  0  0  0  0  0  0  0  0  0  0
    9.2870    2.3982    6.1420 H   0  0  0  0  0  0  0  0  0  0  0  0
    9.0382    0.6240    6.2469 H   0  0  0  0  0  0  0  0  0  0  0  0
   12.1607    1.2638    4.0714 H   0  0  0  0  0  0  0  0  0  0  0  0
    9.9796    1.1263    7.6087 H   0  0  0  0  0  0  0  0  0  0  0  0
   11.2033    2.1298    8.1615 H   0  0  0  0  0  0  0  0  0  0  0  0
   11.3954    0.3555    7.9479 H   0  0  0  0  0  0  0  0  0  0  0  0
   13.6168    2.5508    5.4207 H   0  0  0  0  0  0  0  0  0  0  0  0
   13.7478    0.8919    5.6212 H   0  0  0  0  0  0  0  0  0  0  0  0
   12.9560    1.3045    8.1528 H   0  0  0  0  0  0  0  0  0  0  0  0
   13.1837    3.0185    7.8593 H   0  0  0  0  0  0  0  0  0  0  0  0
   15.4506    2.4444    8.1324 H   0  0  0  0  0  0  0  0  0  0  0  0
   15.0924    1.2628    6.9782 H   0  0  0  0  0  0  0  0  0  0  0  0
   13.6186    0.1151    9.5427 H   0  0  0  0  0  0  0  0  0  0  0  0
   15.1394    0.8156   10.0954 H   0  0  0  0  0  0  0  0  0  0  0  0
   16.7521   -1.2647   10.4958 H   0  0  0  0  0  0  0  0  0  0  0  0
   18.6449   -1.2671    8.0209 H   0  0  0  0  0  0  0  0  0  0  0  0
   19.0620   -1.4392   11.0096 H   0  0  0  0  0  0  0  0  0  0  0  0
   21.2019   -0.6574    8.8727 H   0  0  0  0  0  0  0  0  0  0  0  0
   20.6783    0.2529   11.6668 H   0  0  0  0  0  0  0  0  0  0  0  0
   20.7028    2.3021   10.1922 H   0  0  0  0  0  0  0  0  0  0  0  0
   18.4437    2.2585    9.8800 H   0  0  0  0  0  0  0  0  0  0  0  0
   17.0187    0.9874    9.3664 H   0  0  0  0  0  0  0  0  0  0  0  0
   16.0159    0.3942    8.0509 H   0  0  0  0  0  0  0  0  0  0  0  0
  1  2  1  0  0  0  0
  1 31  2  3  0  0  0
  1 32  1  0  0  0  0
  2  3  2  3  0  0  0
  2 33  1  0  0  0  0
  3  4  1  0  0  0  0
  3 34  1  0  0  0  0
  4  5  2  3  0  0  0
  4 35  1  0  0  0  0
  5  6  1  0  0  0  0
  5 36  1  0  0  0  0
  6  7  1  0  0  0  0
  6  8  2  3  0  0  0
  7 37  1  0  0  0  0
  7 38  1  0  0  0  0
  7 39  1  0  0  0  0
  8  9  1  0  0  0  0
  8 40  1  0  0  0  0
  9 10  1  0  0  0  0
  9 12  2  3  0  0  0
 10 11  1  0  0  0  0
 11 41  1  0  0  0  0
 11 42  1  0  0  0  0
 11 43  1  0  0  0  0
 12 13  1  0  0  0  0
 12 14  1  0  0  0  0
 13 44  1  0  0  0  0
 13 45  1  0  0  0  0
 13 46  1  0  0  0  0
 14 15  2  3  0  0  0
 14 47  1  0  0  0  0
 15 16  1  0  0  0  0
 15 17  1  0  0  0  0
 16 48  1  0  0  0  0
 16 49  1  0  0  0  0
 16 50  1  0  0  0  0
 17 18  1  0  0  0  0
 17 51  1  0  0  0  0
 17 52  1  0  0  0  0
 18 19  1  0  0  0  0
 18 53  1  0  0  0  0
 18 54  1  0  0  0  0
 19 20  1  0  0  0  0
 19 55  1  0  0  0  0
 19 56  1  0  0  0  0
 20 21  1  0  0  0  0
 20 57  1  0  0  0  0
 20 58  1  0  0  0  0
 21 22  2  3  0  0  0
 21 31  1  0  0  0  0
 22 23  1  0  0  0  0
 22 59  1  0  0  0  0
 23 24  2  3  0  0  0
 23 60  1  0  0  0  0
 24 25  1  0  0  0  0
 24 61  1  0  0  0  0
 25 26  2  3  0  0  0
 25 62  1  0  0  0  0
 26 27  1  0  0  0  0
 26 63  1  0  0  0  0
 27 28  2  3  0  0  0
 27 64  1  0  0  0  0
 28 29  1  0  0  0  0
 28 65  1  0  0  0  0
 29 30  2  3  0  0  0
 29 66  1  0  0  0  0
 30 31  1  0  0  0  0
 30 67  1  0  0  0  0
M  END
$$$$
