
 OpenBabel04232216573D

186185  0  0  0  0  0  0  0  0999 V2000
   24.9728   -2.5400   23.5201 N   0  0  0  0  0  0  0  0  0  0  0  0
   25.7675   -1.5381   23.3086 C   0  0  0  0  0  0  0  0  0  0  0  0
   26.1346   -0.5339   24.4004 C   0  0  0  0  0  0  0  0  0  0  0  0
   25.5707   -0.9532   25.6976 N   0  0  0  0  0  0  0  0  0  0  0  0
   26.0598   -2.2213   26.0840 N   0  0  0  0  0  0  0  0  0  0  0  0
   27.4686   -2.1641   26.2175 N   0  0  0  0  0  0  0  0  0  0  0  0
   27.9640   -3.4255   26.5605 N   0  0  0  0  0  0  0  0  0  0  0  0
   27.6442   -4.3947   25.5415 N   0  0  0  0  0  0  0  0  0  0  0  0
   28.1947   -4.0003   24.2699 N   0  0  0  0  0  0  0  0  0  0  0  0
   29.6202   -3.9145   24.3548 N   0  0  0  0  0  0  0  0  0  0  0  0
   30.1701   -5.1816   24.7340 N   0  0  0  0  0  0  0  0  0  0  0  0
   29.8118   -6.1621   23.7698 N   0  0  0  0  0  0  0  0  0  0  0  0
   30.3227   -5.7763   22.4996 N   0  0  0  0  0  0  0  0  0  0  0  0
   31.7409   -5.6381   22.5904 N   0  0  0  0  0  0  0  0  0  0  0  0
   32.3104   -6.8990   22.9836 N   0  0  0  0  0  0  0  0  0  0  0  0
   31.9412   -7.8941   22.0326 N   0  0  0  0  0  0  0  0  0  0  0  0
   32.4548   -7.5190   20.7436 N   0  0  0  0  0  0  0  0  0  0  0  0
   33.8769   -7.3736   20.8184 N   0  0  0  0  0  0  0  0  0  0  0  0
   34.4667   -8.6257   21.2115 N   0  0  0  0  0  0  0  0  0  0  0  0
   34.1170   -9.6525   20.2660 N   0  0  0  0  0  0  0  0  0  0  0  0
   34.6118   -9.3030   18.9575 N   0  0  0  0  0  0  0  0  0  0  0  0
   36.0407   -9.1356   19.0019 N   0  0  0  0  0  0  0  0  0  0  0  0
   36.6705  -10.3736   19.4133 N   0  0  0  0  0  0  0  0  0  0  0  0
   36.3045  -11.4225   18.5103 N   0  0  0  0  0  0  0  0  0  0  0  0
   36.7742  -11.0842   17.1847 N   0  0  0  0  0  0  0  0  0  0  0  0
   38.1872  -10.8708   17.2255 N   0  0  0  0  0  0  0  0  0  0  0  0
   38.8103  -12.0981   17.6604 N   0  0  0  0  0  0  0  0  0  0  0  0
   38.4560  -13.1509   16.7520 N   0  0  0  0  0  0  0  0  0  0  0  0
   38.9001  -12.7959   15.4353 N   0  0  0  0  0  0  0  0  0  0  0  0
   40.3269  -12.6103   15.4561 N   0  0  0  0  0  0  0  0  0  0  0  0
   40.9778  -13.8271   15.8938 N   0  0  0  0  0  0  0  0  0  0  0  0
   40.6257  -14.8901   15.0059 N   0  0  0  0  0  0  0  0  0  0  0  0
   41.0719  -14.5683   13.6667 N   0  0  0  0  0  0  0  0  0  0  0  0
   42.4841  -14.3557   13.6528 N   0  0  0  0  0  0  0  0  0  0  0  0
   43.1441  -15.5428   14.0830 N   0  0  0  0  0  0  0  0  0  0  0  0
   42.8102  -16.6266   13.2138 N   0  0  0  0  0  0  0  0  0  0  0  0
   43.1988  -16.3268   11.8752 N   0  0  0  0  0  0  0  0  0  0  0  0
   44.5921  -16.1000   11.8503 N   0  0  0  0  0  0  0  0  0  0  0  0
   45.2543  -17.2694   12.3202 N   0  0  0  0  0  0  0  0  0  0  0  0
   44.9151  -18.3847   11.4646 N   0  0  0  0  0  0  0  0  0  0  0  0
   45.2900  -18.1097   10.1184 N   0  0  0  0  0  0  0  0  0  0  0  0
   46.7070  -17.9113   10.0369 N   0  0  0  0  0  0  0  0  0  0  0  0
   47.3925  -19.0600   10.5156 N   0  0  0  0  0  0  0  0  0  0  0  0
   47.0288  -20.1816    9.7262 N   0  0  0  0  0  0  0  0  0  0  0  0
   47.4055  -19.9406    8.3555 N   0  0  0  0  0  0  0  0  0  0  0  0
   48.8005  -19.6916    8.2697 N   0  0  0  0  0  0  0  0  0  0  0  0
   49.5284  -20.8353    8.7307 N   0  0  0  0  0  0  0  0  0  0  0  0
   49.1766  -21.9813    7.9724 N   0  0  0  0  0  0  0  0  0  0  0  0
   49.4921  -21.7524    6.6022 N   0  0  0  0  0  0  0  0  0  0  0  0
   50.9039  -21.4841    6.4880 N   0  0  0  0  0  0  0  0  0  0  0  0
   51.6463  -22.6110    6.9856 N   0  0  0  0  0  0  0  0  0  0  0  0
   51.3032  -23.7896    6.2351 N   0  0  0  0  0  0  0  0  0  0  0  0
   51.6202  -23.5770    4.8497 N   0  0  0  0  0  0  0  0  0  0  0  0
   53.0101  -23.2956    4.7325 N   0  0  0  0  0  0  0  0  0  0  0  0
   53.7961  -24.4110    5.2066 N   0  0  0  0  0  0  0  0  0  0  0  0
   53.4643  -25.6068    4.4664 N   0  0  0  0  0  0  0  0  0  0  0  0
   53.7670  -25.3484    3.0624 C   0  0  0  0  0  0  0  0  0  0  0  0
   53.4150  -26.5803    2.2642 C   0  0  0  0  0  0  0  0  0  0  0  0
   53.7326  -26.3573    0.7985 C   0  0  0  0  0  0  0  0  0  0  0  0
   53.3894  -27.5943   -0.0055 C   0  0  0  0  0  0  0  0  0  0  0  0
   53.7078  -27.3720   -1.4692 C   0  0  0  0  0  0  0  0  0  0  0  0
   53.3643  -28.6091   -2.2716 C   0  0  0  0  0  0  0  0  0  0  0  0
   53.6827  -28.3865   -3.7348 C   0  0  0  0  0  0  0  0  0  0  0  0
   53.3392  -29.6235   -4.5369 C   0  0  0  0  0  0  0  0  0  0  0  0
   53.6576  -29.4009   -6.0000 C   0  0  0  0  0  0  0  0  0  0  0  0
   53.3142  -30.6379   -6.8022 C   0  0  0  0  0  0  0  0  0  0  0  0
   53.6325  -30.4153   -8.2653 C   0  0  0  0  0  0  0  0  0  0  0  0
   53.2891  -31.6523   -9.0675 C   0  0  0  0  0  0  0  0  0  0  0  0
   53.6093  -31.4304  -10.5303 C   0  0  0  0  0  0  0  0  0  0  0  0
   53.2658  -32.6674  -11.3324 C   0  0  0  0  0  0  0  0  0  0  0  0
   53.5861  -32.4455  -12.7952 C   0  0  0  0  0  0  0  0  0  0  0  0
   53.2426  -33.6825  -13.5974 C   0  0  0  0  0  0  0  0  0  0  0  0
   53.5628  -33.4606  -15.0602 C   0  0  0  0  0  0  0  0  0  0  0  0
   53.2194  -34.6976  -15.8624 C   0  0  0  0  0  0  0  0  0  0  0  0
   53.5378  -34.4750  -17.3255 C   0  0  0  0  0  0  0  0  0  0  0  0
   53.1943  -35.7120  -18.1276 C   0  0  0  0  0  0  0  0  0  0  0  0
   53.5128  -35.4891  -19.5908 C   0  0  0  0  0  0  0  0  0  0  0  0
   53.1677  -36.7251  -20.3937 C   0  0  0  0  0  0  0  0  0  0  0  0
   53.4840  -36.5029  -21.8590 C   0  0  0  0  0  0  0  0  0  0  0  0
   53.1382  -37.7381  -22.6557 C   0  0  0  0  0  0  0  0  0  0  0  0
   24.8805   -3.1842   22.7529 H   0  0  0  0  0  0  0  0  0  0  0  0
   26.1759   -1.3478   22.3008 H   0  0  0  0  0  0  0  0  0  0  0  0
   25.7694    0.4486   24.1161 H   0  0  0  0  0  0  0  0  0  0  0  0
   27.2333   -0.4801   24.4777 H   0  0  0  0  0  0  0  0  0  0  0  0
   24.5377   -0.9773   25.6013 H   0  0  0  0  0  0  0  0  0  0  0  0
   25.8338   -2.9150   25.3520 H   0  0  0  0  0  0  0  0  0  0  0  0
   27.6921   -1.4487   26.9039 H   0  0  0  0  0  0  0  0  0  0  0  0
   27.5668   -3.7282   27.4452 H   0  0  0  0  0  0  0  0  0  0  0  0
   26.6399   -4.4668   25.4175 H   0  0  0  0  0  0  0  0  0  0  0  0
   27.7821   -3.0924   24.0090 H   0  0  0  0  0  0  0  0  0  0  0  0
   29.8706   -3.2024   25.0594 H   0  0  0  0  0  0  0  0  0  0  0  0
   29.7921   -5.4615   25.6566 H   0  0  0  0  0  0  0  0  0  0  0  0
   28.7980   -6.2329   23.7065 H   0  0  0  0  0  0  0  0  0  0  0  0
   29.9347   -4.8729   22.2468 H   0  0  0  0  0  0  0  0  0  0  0  0
   31.9502   -4.9113   23.2854 H   0  0  0  0  0  0  0  0  0  0  0  0
   31.9382   -7.1803   23.8884 H   0  0  0  0  0  0  0  0  0  0  0  0
   30.9213   -7.9883   21.9913 H   0  0  0  0  0  0  0  0  0  0  0  0
   32.0631   -6.6252   20.4494 H   0  0  0  0  0  0  0  0  0  0  0  0
   34.1265   -6.6441   21.4929 H   0  0  0  0  0  0  0  0  0  0  0  0
   34.1229   -8.9167   22.1230 H   0  0  0  0  0  0  0  0  0  0  0  0
   33.0983   -9.7695   20.2329 H   0  0  0  0  0  0  0  0  0  0  0  0
   34.1924   -8.4205   18.6579 H   0  0  0  0  0  0  0  0  0  0  0  0
   36.2676   -8.3799   19.6617 H   0  0  0  0  0  0  0  0  0  0  0  0
   36.3284  -10.6234   20.3460 H   0  0  0  0  0  0  0  0  0  0  0  0
   35.2812  -11.5321   18.5167 H   0  0  0  0  0  0  0  0  0  0  0  0
   36.3335  -10.2066   16.9012 H   0  0  0  0  0  0  0  0  0  0  0  0
   38.3909  -10.1113   17.8890 H   0  0  0  0  0  0  0  0  0  0  0  0
   38.4619  -12.3294   18.5980 H   0  0  0  0  0  0  0  0  0  0  0  0
   37.4459  -13.2606   16.7110 H   0  0  0  0  0  0  0  0  0  0  0  0
   38.4268  -11.9292   15.1455 H   0  0  0  0  0  0  0  0  0  0  0  0
   40.5884  -11.8754   16.1044 H   0  0  0  0  0  0  0  0  0  0  0  0
   40.6525  -14.0572   16.8432 H   0  0  0  0  0  0  0  0  0  0  0  0
   39.6090  -15.0255   15.0142 H   0  0  0  0  0  0  0  0  0  0  0  0
   40.6314  -13.7082   13.3524 H   0  0  0  0  0  0  0  0  0  0  0  0
   42.7423  -13.5995   14.2806 H   0  0  0  0  0  0  0  0  0  0  0  0
   42.8479  -15.7440   15.0519 H   0  0  0  0  0  0  0  0  0  0  0  0
   41.8021  -16.7833   13.2162 H   0  0  0  0  0  0  0  0  0  0  0  0
   42.7256  -15.4771   11.5732 H   0  0  0  0  0  0  0  0  0  0  0  0
   44.8059  -15.3009   12.4603 H   0  0  0  0  0  0  0  0  0  0  0  0
   44.9565  -17.4730   13.2799 H   0  0  0  0  0  0  0  0  0  0  0  0
   43.9088  -18.5347   11.4795 H   0  0  0  0  0  0  0  0  0  0  0  0
   44.8331  -17.2693    9.7781 H   0  0  0  0  0  0  0  0  0  0  0  0
   46.9533  -17.1117   10.6232 H   0  0  0  0  0  0  0  0  0  0  0  0
   47.1239  -19.2143   11.4996 H   0  0  0  0  0  0  0  0  0  0  0  0
   46.0203  -20.3342    9.7707 H   0  0  0  0  0  0  0  0  0  0  0  0
   46.9322  -19.1027    8.0273 H   0  0  0  0  0  0  0  0  0  0  0  0
   49.0487  -18.8911    8.8398 H   0  0  0  0  0  0  0  0  0  0  0  0
   49.2813  -21.0003    9.7072 H   0  0  0  0  0  0  0  0  0  0  0  0
   48.1697  -22.1583    8.0659 H   0  0  0  0  0  0  0  0  0  0  0  0
   48.9647  -20.9371    6.2760 H   0  0  0  0  0  0  0  0  0  0  0  0
   51.1152  -20.6449    7.0499 H   0  0  0  0  0  0  0  0  0  0  0  0
   51.4117  -22.7499    7.9832 H   0  0  0  0  0  0  0  0  0  0  0  0
   50.3010  -23.9855    6.3379 H   0  0  0  0  0  0  0  0  0  0  0  0
   51.0776  -22.7838    4.4864 H   0  0  0  0  0  0  0  0  0  0  0  0
   53.2649  -22.4467    5.2441 H   0  0  0  0  0  0  0  0  0  0  0  0
   53.5794  -24.5627    6.2019 H   0  0  0  0  0  0  0  0  0  0  0  0
   52.4573  -25.7882    4.5481 H   0  0  0  0  0  0  0  0  0  0  0  0
   54.8289  -25.1192    2.9509 H   0  0  0  0  0  0  0  0  0  0  0  0
   53.1871  -24.4978    2.6744 H   0  0  0  0  0  0  0  0  0  0  0  0
   52.3490  -26.8090    2.3739 H   0  0  0  0  0  0  0  0  0  0  0  0
   53.9885  -27.4348    2.6360 H   0  0  0  0  0  0  0  0  0  0  0  0
   54.7976  -26.1285    0.6820 H   0  0  0  0  0  0  0  0  0  0  0  0
   53.1589  -25.5040    0.4206 H   0  0  0  0  0  0  0  0  0  0  0  0
   52.3245  -27.8238    0.1081 H   0  0  0  0  0  0  0  0  0  0  0  0
   53.9634  -28.4484    0.3697 H   0  0  0  0  0  0  0  0  0  0  0  0
   54.7727  -27.1430   -1.5838 H   0  0  0  0  0  0  0  0  0  0  0  0
   53.1339  -26.5184   -1.8454 H   0  0  0  0  0  0  0  0  0  0  0  0
   52.2994  -28.8382   -2.1573 H   0  0  0  0  0  0  0  0  0  0  0  0
   53.9383  -29.4629   -1.8957 H   0  0  0  0  0  0  0  0  0  0  0  0
   54.7476  -28.1574   -3.8492 H   0  0  0  0  0  0  0  0  0  0  0  0
   53.1088  -27.5328   -4.1107 H   0  0  0  0  0  0  0  0  0  0  0  0
   52.2743  -29.8526   -4.4225 H   0  0  0  0  0  0  0  0  0  0  0  0
   53.9132  -30.4773   -4.1610 H   0  0  0  0  0  0  0  0  0  0  0  0
   54.7225  -29.1718   -6.1144 H   0  0  0  0  0  0  0  0  0  0  0  0
   53.0837  -28.5472   -6.3760 H   0  0  0  0  0  0  0  0  0  0  0  0
   52.2492  -30.8670   -6.6878 H   0  0  0  0  0  0  0  0  0  0  0  0
   53.8881  -31.4917   -6.4262 H   0  0  0  0  0  0  0  0  0  0  0  0
   54.6975  -30.1862   -8.3797 H   0  0  0  0  0  0  0  0  0  0  0  0
   53.0586  -29.5615   -8.6413 H   0  0  0  0  0  0  0  0  0  0  0  0
   52.2238  -31.8806   -8.9542 H   0  0  0  0  0  0  0  0  0  0  0  0
   53.8619  -32.5064   -8.6906 H   0  0  0  0  0  0  0  0  0  0  0  0
   54.6745  -31.2021  -10.6435 H   0  0  0  0  0  0  0  0  0  0  0  0
   53.0364  -30.5763  -10.9072 H   0  0  0  0  0  0  0  0  0  0  0  0
   52.2006  -32.8957  -11.2192 H   0  0  0  0  0  0  0  0  0  0  0  0
   53.8387  -33.5215  -10.9555 H   0  0  0  0  0  0  0  0  0  0  0  0
   54.6513  -32.2172  -12.9085 H   0  0  0  0  0  0  0  0  0  0  0  0
   53.0132  -31.5914  -13.1721 H   0  0  0  0  0  0  0  0  0  0  0  0
   52.1774  -33.9108  -13.4842 H   0  0  0  0  0  0  0  0  0  0  0  0
   53.8155  -34.5366  -13.2205 H   0  0  0  0  0  0  0  0  0  0  0  0
   54.6281  -33.2323  -15.1735 H   0  0  0  0  0  0  0  0  0  0  0  0
   52.9900  -32.6065  -15.4371 H   0  0  0  0  0  0  0  0  0  0  0  0
   52.1544  -34.9267  -15.7480 H   0  0  0  0  0  0  0  0  0  0  0  0
   53.7933  -35.5514  -15.4864 H   0  0  0  0  0  0  0  0  0  0  0  0
   54.6027  -34.2459  -17.4399 H   0  0  0  0  0  0  0  0  0  0  0  0
   52.9638  -33.6212  -17.7014 H   0  0  0  0  0  0  0  0  0  0  0  0
   52.1294  -35.9411  -18.0132 H   0  0  0  0  0  0  0  0  0  0  0  0
   53.7682  -36.5658  -17.7517 H   0  0  0  0  0  0  0  0  0  0  0  0
   54.5779  -35.2616  -19.7053 H   0  0  0  0  0  0  0  0  0  0  0  0
   52.9398  -34.6346  -19.9663 H   0  0  0  0  0  0  0  0  0  0  0  0
   52.1027  -36.9539  -20.2775 H   0  0  0  0  0  0  0  0  0  0  0  0
   53.7412  -37.5797  -20.0185 H   0  0  0  0  0  0  0  0  0  0  0  0
   54.5484  -36.2771  -21.9769 H   0  0  0  0  0  0  0  0  0  0  0  0
   52.9093  -35.6512  -22.2359 H   0  0  0  0  0  0  0  0  0  0  0  0
   53.7157  -38.5944  -22.2959 H   0  0  0  0  0  0  0  0  0  0  0  0
   53.3652  -37.5807  -23.7119 H   0  0  0  0  0  0  0  0  0  0  0  0
   52.0735  -37.9673  -22.5554 H   0  0  0  0  0  0  0  0  0  0  0  0
  1  2  2  0  0  0  0
  1 81  1  0  0  0  0
  2  3  1  0  0  0  0
  2 82  1  0  0  0  0
  3  4  1  0  0  0  0
  3 83  1  0  0  0  0
  3 84  1  0  0  0  0
  4  5  1  0  0  0  0
  4 85  1  0  0  0  0
  5  6  1  0  0  0  0
  5 86  1  0  0  0  0
  6  7  1  0  0  0  0
  6 87  1  0  0  0  0
  7  8  1  0  0  0  0
  7 88  1  0  0  0  0
  8  9  1  0  0  0  0
  8 89  1  0  0  0  0
  9 10  1  0  0  0  0
  9 90  1  0  0  0  0
 10 11  1  0  0  0  0
 10 91  1  0  0  0  0
 11 12  1  0  0  0  0
 11 92  1  0  0  0  0
 12 13  1  0  0  0  0
 12 93  1  0  0  0  0
 13 14  1  0  0  0  0
 13 94  1  0  0  0  0
 14 15  1  0  0  0  0
 14 95  1  0  0  0  0
 15 16  1  0  0  0  0
 15 96  1  0  0  0  0
 16 17  1  0  0  0  0
 16 97  1  0  0  0  0
 17 18  1  0  0  0  0
 17 98  1  0  0  0  0
 18 19  1  0  0  0  0
 18 99  1  0  0  0  0
 19 20  1  0  0  0  0
 19100  1  0  0  0  0
 20 21  1  0  0  0  0
 20101  1  0  0  0  0
 21 22  1  0  0  0  0
 21102  1  0  0  0  0
 22 23  1  0  0  0  0
 22103  1  0  0  0  0
 23 24  1  0  0  0  0
 23104  1  0  0  0  0
 24 25  1  0  0  0  0
 24105  1  0  0  0  0
 25 26  1  0  0  0  0
 25106  1  0  0  0  0
 26 27  1  0  0  0  0
 26107  1  0  0  0  0
 27 28  1  0  0  0  0
 27108  1  0  0  0  0
 28 29  1  0  0  0  0
 28109  1  0  0  0  0
 29 30  1  0  0  0  0
 29110  1  0  0  0  0
 30 31  1  0  0  0  0
 30111  1  0  0  0  0
 31 32  1  0  0  0  0
 31112  1  0  0  0  0
 32 33  1  0  0  0  0
 32113  1  0  0  0  0
 33 34  1  0  0  0  0
 33114  1  0  0  0  0
 34 35  1  0  0  0  0
 34115  1  0  0  0  0
 35 36  1  0  0  0  0
 35116  1  0  0  0  0
 36 37  1  0  0  0  0
 36117  1  0  0  0  0
 37 38  1  0  0  0  0
 37118  1  0  0  0  0
 38 39  1  0  0  0  0
 38119  1  0  0  0  0
 39 40  1  0  0  0  0
 39120  1  0  0  0  0
 40 41  1  0  0  0  0
 40121  1  0  0  0  0
 41 42  1  0  0  0  0
 41122  1  0  0  0  0
 42 43  1  0  0  0  0
 42123  1  0  0  0  0
 43 44  1  0  0  0  0
 43124  1  0  0  0  0
 44 45  1  0  0  0  0
 44125  1  0  0  0  0
 45 46  1  0  0  0  0
 45126  1  0  0  0  0
 46 47  1  0  0  0  0
 46127  1  0  0  0  0
 47 48  1  0  0  0  0
 47128  1  0  0  0  0
 48 49  1  0  0  0  0
 48129  1  0  0  0  0
 49 50  1  0  0  0  0
 49130  1  0  0  0  0
 50 51  1  0  0  0  0
 50131  1  0  0  0  0
 51 52  1  0  0  0  0
 51132  1  0  0  0  0
 52 53  1  0  0  0  0
 52133  1  0  0  0  0
 53 54  1  0  0  0  0
 53134  1  0  0  0  0
 54 55  1  0  0  0  0
 54135  1  0  0  0  0
 55 56  1  0  0  0  0
 55136  1  0  0  0  0
 56 57  1  0  0  0  0
 56137  1  0  0  0  0
 57 58  1  0  0  0  0
 57138  1  0  0  0  0
 57139  1  0  0  0  0
 58 59  1  0  0  0  0
 58140  1  0  0  0  0
 58141  1  0  0  0  0
 59 60  1  0  0  0  0
 59142  1  0  0  0  0
 59143  1  0  0  0  0
 60 61  1  0  0  0  0
 60144  1  0  0  0  0
 60145  1  0  0  0  0
 61 62  1  0  0  0  0
 61146  1  0  0  0  0
 61147  1  0  0  0  0
 62 63  1  0  0  0  0
 62148  1  0  0  0  0
 62149  1  0  0  0  0
 63 64  1  0  0  0  0
 63150  1  0  0  0  0
 63151  1  0  0  0  0
 64 65  1  0  0  0  0
 64152  1  0  0  0  0
 64153  1  0  0  0  0
 65 66  1  0  0  0  0
 65154  1  0  0  0  0
 65155  1  0  0  0  0
 66 67  1  0  0  0  0
 66156  1  0  0  0  0
 66157  1  0  0  0  0
 67 68  1  0  0  0  0
 67158  1  0  0  0  0
 67159  1  0  0  0  0
 68 69  1  0  0  0  0
 68160  1  0  0  0  0
 68161  1  0  0  0  0
 69 70  1  0  0  0  0
 69162  1  0  0  0  0
 69163  1  0  0  0  0
 70 71  1  0  0  0  0
 70164  1  0  0  0  0
 70165  1  0  0  0  0
 71 72  1  0  0  0  0
 71166  1  0  0  0  0
 71167  1  0  0  0  0
 72 73  1  0  0  0  0
 72168  1  0  0  0  0
 72169  1  0  0  0  0
 73 74  1  0  0  0  0
 73170  1  0  0  0  0
 73171  1  0  0  0  0
 74 75  1  0  0  0  0
 74172  1  0  0  0  0
 74173  1  0  0  0  0
 75 76  1  0  0  0  0
 75174  1  0  0  0  0
 75175  1  0  0  0  0
 76 77  1  0  0  0  0
 76176  1  0  0  0  0
 76177  1  0  0  0  0
 77 78  1  0  0  0  0
 77178  1  0  0  0  0
 77179  1  0  0  0  0
 78 79  1  0  0  0  0
 78180  1  0  0  0  0
 78181  1  0  0  0  0
 79 80  1  0  0  0  0
 79182  1  0  0  0  0
 79183  1  0  0  0  0
 80184  1  0  0  0  0
 80185  1  0  0  0  0
 80186  1  0  0  0  0
M  END
$$$$
