
 OpenBabel04232216453D

 44 45  0  0  0  0  0  0  0  0999 V2000
    4.0731   -1.5958   -2.0401 C   0  0  0  0  0  0  0  0  0  0  0  0
    5.1180   -1.7734   -0.9543 C   0  0  0  0  0  0  0  0  0  0  0  0
    4.3939   -1.5815    0.3191 C   0  0  0  0  0  3  0  0  0  0  0  0
    4.3495   -0.5674    1.3972 C   0  0  0  0  0  0  0  0  0  0  0  0
    3.5451    0.6692    1.1100 C   0  0  0  0  0  0  0  0  0  0  0  0
    5.1201   -0.6909    2.5115 C   0  0  0  0  0  0  0  0  0  0  0  0
    4.6122   -0.1060    4.0506 Cl  0  0  0  0  0  0  0  0  0  0  0  0
    6.4877   -1.3543    2.3871 C   0  0  0  0  0  0  0  0  0  0  0  0
    6.0740   -2.8860    2.1352 C   0  0  0  0  0  0  0  0  0  0  0  0
    6.8107   -4.1268    2.6173 C   0  0  0  0  0  0  0  0  0  0  0  0
    6.1402   -5.2058    2.0903 F   0  0  0  0  0  0  0  0  0  0  0  0
    7.1014   -0.3267    1.2838 C   0  0  0  0  0  0  0  0  0  0  0  0
    7.4253    1.1352    1.5900 C   0  0  0  0  0  0  0  0  0  0  0  0
    7.3870    1.6429    3.0201 N   0  0  0  0  0  0  0  0  0  0  0  0
    7.5911    2.9827    3.2134 C   0  0  0  0  0  0  0  0  0  0  0  0
    7.4393    3.4673    4.4426 F   0  0  0  0  0  0  0  0  0  0  0  0
    7.9089    1.9677    0.6388 N   0  0  0  0  0  0  0  0  0  0  0  0
    7.5087   -1.3512    3.5167 C   0  0  0  0  0  0  0  0  0  0  0  0
    8.8976   -1.4147    2.9504 C   0  0  0  0  0  0  0  0  0  0  0  0
    9.1491   -2.4276    2.1905 N   0  0  0  0  0  0  0  0  0  0  0  0
   10.1681   -2.3761    1.2870 C   0  0  0  0  0  0  0  0  0  0  0  0
   10.0121   -2.3381    0.0116 N   0  0  0  0  0  0  0  0  0  0  0  0
    8.8023   -2.0600   -0.6436 C   0  0  0  0  0  0  0  0  0  0  0  0
    7.5940   -2.6609   -0.5962 C   0  0  0  0  0  0  0  0  0  0  0  0
    6.3775   -2.1732   -1.3039 C   0  0  0  0  0  0  0  0  0  0  0  0
    3.3176   -2.3895   -1.9500 H   0  0  0  0  0  0  0  0  0  0  0  0
    4.4916   -1.6495   -3.0481 H   0  0  0  0  0  0  0  0  0  0  0  0
    3.5564   -0.6329   -1.9356 H   0  0  0  0  0  0  0  0  0  0  0  0
    3.5460   -2.2705    0.4214 H   0  0  0  0  0  0  0  0  0  0  0  0
    2.4773    0.5403    1.2854 H   0  0  0  0  0  0  0  0  0  0  0  0
    3.6985    0.9704    0.0646 H   0  0  0  0  0  0  0  0  0  0  0  0
    3.9081    1.5204    1.7013 H   0  0  0  0  0  0  0  0  0  0  0  0
    5.9119   -3.0914    1.0904 H   0  0  0  0  0  0  0  0  0  0  0  0
    5.0693   -3.0436    2.5645 H   0  0  0  0  0  0  0  0  0  0  0  0
    6.7646   -4.2379    3.7004 H   0  0  0  0  0  0  0  0  0  0  0  0
    7.8277   -4.2301    2.2590 H   0  0  0  0  0  0  0  0  0  0  0  0
    6.5038   -0.2265    0.3815 H   0  0  0  0  0  0  0  0  0  0  0  0
    8.0575   -0.6624    0.9309 H   0  0  0  0  0  0  0  0  0  0  0  0
    7.3315   -1.9245    4.4183 H   0  0  0  0  0  0  0  0  0  0  0  0
    9.4707   -0.4700    2.9611 H   0  0  0  0  0  0  0  0  0  0  0  0
   11.2036   -2.4115    1.6779 H   0  0  0  0  0  0  0  0  0  0  0  0
    8.8758   -1.1656   -1.2650 H   0  0  0  0  0  0  0  0  0  0  0  0
    7.5120   -3.5998   -0.0612 H   0  0  0  0  0  0  0  0  0  0  0  0
    6.5690   -2.2161   -2.3730 H   0  0  0  0  0  0  0  0  0  0  0  0
  1  2  1  0  0  0  0
  1 26  1  0  0  0  0
  1 27  1  0  0  0  0
  1 28  1  0  0  0  0
  2  3  1  0  0  0  0
  2 25  2  3  0  0  0
  3  4  1  0  0  0  0
  3 29  1  0  0  0  0
  4  5  1  0  0  0  0
  4  6  2  3  0  0  0
  5 30  1  0  0  0  0
  5 31  1  0  0  0  0
  5 32  1  0  0  0  0
  6  7  1  0  0  0  0
  6  8  1  0  0  0  0
  8  9  1  0  0  0  0
  8 12  1  0  0  0  0
  8 18  2  0  0  0  0
  9 10  1  0  0  0  0
  9 33  1  0  0  0  0
  9 34  1  0  0  0  0
 10 11  1  0  0  0  0
 10 35  1  0  0  0  0
 10 36  1  0  0  0  0
 12 13  1  0  0  0  0
 12 37  1  0  0  0  0
 12 38  1  0  0  0  0
 13 14  1  0  0  0  0
 13 17  2  0  0  0  0
 14 15  2  0  0  0  0
 15 16  1  0  0  0  0
 15 17  1  0  0  0  0
 18 19  1  0  0  0  0
 18 39  1  0  0  0  0
 19 20  2  3  0  0  0
 19 40  1  0  0  0  0
 20 21  1  0  0  0  0
 21 22  2  3  0  0  0
 21 41  1  0  0  0  0
 22 23  1  0  0  0  0
 23 24  2  3  0  0  0
 23 42  1  0  0  0  0
 24 25  1  0  0  0  0
 24 43  1  0  0  0  0
 25 44  1  0  0  0  0
M  END
$$$$
