
 OpenBabel04232216463D

 55 55  0  0  0  0  0  0  0  0999 V2000
    7.1864   -5.4623    2.6214 C   0  0  0  0  0  0  0  0  0  0  0  0
    8.4473   -4.6733    3.0852 C   0  0  0  0  0  0  0  0  0  0  0  0
    8.1358   -3.3133    2.6074 C   0  0  0  0  0  0  0  0  0  0  0  0
    6.8553   -2.1540    2.0387 C   0  0  0  0  0  0  0  0  0  0  0  0
    6.2705   -1.3359    0.5934 C   0  0  0  0  0  0  0  0  0  0  0  0
    5.7131    0.3381    0.2522 C   0  0  0  0  0  0  0  0  0  0  0  0
    4.4820    1.2389    0.5690 C   0  0  0  0  0  0  0  0  0  0  0  0
    3.4648    1.1594    1.4318 C   0  0  0  0  0  0  0  0  0  0  0  0
    6.5927   -1.1763    2.9668 C   0  0  0  0  0  0  0  0  0  0  0  0
    7.8056   -0.3526    3.1476 C   0  0  0  0  0  0  0  0  0  0  0  0
    8.7134   -0.8519    4.0002 C   0  0  0  0  0  0  0  0  0  0  0  0
    9.9735   -1.2354    3.3959 C   0  0  0  0  0  0  0  0  0  0  0  0
   10.6444   -2.2914    3.8324 C   0  0  0  0  0  0  0  0  0  0  0  0
   11.8051   -2.7534    3.1247 C   0  0  0  0  0  0  0  0  0  0  0  0
   12.6240   -3.5251    3.8135 C   0  0  0  0  0  0  0  0  0  0  0  0
   14.2108   -3.9183    3.3558 S   0  0  0  0  0  0  0  0  0  0  0  0
   14.6430   -4.1987    4.9844 C   0  0  0  0  0  0  0  0  0  0  0  0
   15.8963   -4.3763    5.3861 C   0  0  0  0  0  0  0  0  0  0  0  0
   16.1210   -4.6904    6.7880 C   0  0  0  0  0  0  0  0  0  0  0  0
   17.2137   -5.2116    7.2672 C   0  0  0  0  0  0  0  0  0  0  0  0
   17.0141   -6.2835    8.2105 C   0  0  0  0  0  0  0  0  0  0  0  0
   16.5984   -7.3532    7.5776 C   0  0  0  0  0  0  0  0  0  0  0  0
   15.0087   -7.6666    7.1921 C   0  0  0  0  0  0  0  0  0  0  0  0
   14.3719   -7.5425    5.9603 C   0  0  0  0  0  0  0  0  0  0  0  0
   12.8430   -6.8865    5.3192 C   0  0  0  0  0  0  0  0  0  0  0  0
   11.5099   -6.2382    5.1057 C   0  0  0  0  0  0  0  0  0  0  0  0
   10.2656   -5.7985    3.3991 S   0  0  0  0  0  0  0  0  0  0  0  0
    6.8599   -6.3157    3.2073 H   0  0  0  0  0  0  0  0  0  0  0  0
    7.2514   -5.6899    1.5492 H   0  0  0  0  0  0  0  0  0  0  0  0
    6.3040   -4.7845    2.6668 H   0  0  0  0  0  0  0  0  0  0  0  0
    7.5770   -3.1479    3.5624 H   0  0  0  0  0  0  0  0  0  0  0  0
    5.3625   -1.8821    0.3005 H   0  0  0  0  0  0  0  0  0  0  0  0
    7.0316   -1.4608   -0.1865 H   0  0  0  0  0  0  0  0  0  0  0  0
    5.5523    0.2776   -0.8442 H   0  0  0  0  0  0  0  0  0  0  0  0
    6.5740    1.0184    0.3383 H   0  0  0  0  0  0  0  0  0  0  0  0
    4.4124    2.1539   -0.0690 H   0  0  0  0  0  0  0  0  0  0  0  0
    3.3603    0.3450    2.1317 H   0  0  0  0  0  0  0  0  0  0  0  0
    2.6885    1.9349    1.4670 H   0  0  0  0  0  0  0  0  0  0  0  0
    6.2602   -1.5036    3.9540 H   0  0  0  0  0  0  0  0  0  0  0  0
    8.1483    0.1232    2.2312 H   0  0  0  0  0  0  0  0  0  0  0  0
    8.3862   -1.4898    4.8287 H   0  0  0  0  0  0  0  0  0  0  0  0
   10.2404   -0.8467    2.4234 H   0  0  0  0  0  0  0  0  0  0  0  0
   10.3092   -2.8645    4.7058 H   0  0  0  0  0  0  0  0  0  0  0  0
   12.0519   -2.3890    2.1364 H   0  0  0  0  0  0  0  0  0  0  0  0
   12.2540   -3.8404    4.7929 H   0  0  0  0  0  0  0  0  0  0  0  0
   13.8642   -4.2912    5.7517 H   0  0  0  0  0  0  0  0  0  0  0  0
   16.7105   -4.4107    4.6891 H   0  0  0  0  0  0  0  0  0  0  0  0
   15.1610   -4.9583    7.3231 H   0  0  0  0  0  0  0  0  0  0  0  0
   18.1894   -5.1358    6.6630 H   0  0  0  0  0  0  0  0  0  0  0  0
   16.3918   -5.8981    8.9990 H   0  0  0  0  0  0  0  0  0  0  0  0
   17.3875   -7.8938    6.9310 H   0  0  0  0  0  0  0  0  0  0  0  0
   15.3039   -8.7447    7.4665 H   0  0  0  0  0  0  0  0  0  0  0  0
   14.9977   -7.9653    5.1531 H   0  0  0  0  0  0  0  0  0  0  0  0
   12.8138   -6.7335    6.4408 H   0  0  0  0  0  0  0  0  0  0  0  0
   11.0428   -5.8310    5.9970 H   0  0  0  0  0  0  0  0  0  0  0  0
  1  2  1  0  0  0  0
  1 28  1  0  0  0  0
  1 29  1  0  0  0  0
  1 30  1  0  0  0  0
  2  3  2  3  0  0  0
  2 27  1  0  0  0  0
  3  4  1  0  0  0  0
  3 31  1  0  0  0  0
  4  5  1  0  0  0  0
  4  9  2  3  0  0  0
  5  6  1  0  0  0  0
  5 32  1  0  0  0  0
  5 33  1  0  0  0  0
  6  7  1  0  0  0  0
  6 34  1  0  0  0  0
  6 35  1  0  0  0  0
  7  8  2  0  0  0  0
  7 36  1  0  0  0  0
  8 37  1  0  0  0  0
  8 38  1  0  0  0  0
  9 10  1  0  0  0  0
  9 39  1  0  0  0  0
 10 11  2  3  0  0  0
 10 40  1  0  0  0  0
 11 12  1  0  0  0  0
 11 41  1  0  0  0  0
 12 13  2  3  0  0  0
 12 42  1  0  0  0  0
 13 14  1  0  0  0  0
 13 43  1  0  0  0  0
 14 15  2  3  0  0  0
 14 44  1  0  0  0  0
 15 16  1  0  0  0  0
 15 45  1  0  0  0  0
 16 17  1  0  0  0  0
 17 18  2  3  0  0  0
 17 46  1  0  0  0  0
 18 19  1  0  0  0  0
 18 47  1  0  0  0  0
 19 20  2  3  0  0  0
 19 48  1  0  0  0  0
 20 21  1  0  0  0  0
 20 49  1  0  0  0  0
 21 22  2  3  0  0  0
 21 50  1  0  0  0  0
 22 23  1  0  0  0  0
 22 51  1  0  0  0  0
 23 24  2  3  0  0  0
 23 52  1  0  0  0  0
 24 25  1  0  0  0  0
 24 53  1  0  0  0  0
 25 26  2  3  0  0  0
 25 54  1  0  0  0  0
 26 27  1  0  0  0  0
 26 55  1  0  0  0  0
M  END
$$$$
