
 OpenBabel04232216583D

 90 89  0  0  0  0  0  0  0  0999 V2000
   15.2203   10.7093   -1.6906 N   0  0  0  0  0  0  0  0  0  0  0  0
   14.8465   10.7053   -2.9371 N   0  0  0  0  0  0  0  0  0  0  0  0
   13.7586   11.2276   -2.9679 C   0  0  0  0  0  0  0  0  0  0  0  0
   13.3020   11.7541   -4.2961 C   0  0  0  0  0  0  0  0  0  0  0  0
   13.8631   10.9530   -5.3678 N   0  0  0  0  0  0  0  0  0  0  0  0
   13.3351    9.5800   -5.2096 N   0  0  0  0  0  0  0  0  0  0  0  0
   11.9043    9.5275   -5.3055 N   0  0  0  0  0  0  0  0  0  0  0  0
   11.3292    7.9824   -5.1120 S   0  0  0  0  0  0  0  0  0  0  0  0
   11.7746    7.4053   -3.6048 N   0  0  0  0  0  0  0  0  0  0  0  0
   11.1421    8.3496   -2.3914 S   0  0  0  0  0  0  0  0  0  0  0  0
   11.7605    7.4365   -0.6450 S   0  0  0  0  0  0  0  0  0  0  0  0
   13.8319    7.2480   -0.6453 S   0  0  0  0  0  0  0  0  0  0  0  0
   14.5705    8.9826   -0.0679 S   0  0  0  0  0  0  0  0  0  0  0  0
   16.9384    9.2345   -0.4124 S   0  0  0  0  0  0  0  0  0  0  0  0
   17.5493   11.4345   -0.7855 S   0  0  0  0  0  0  0  0  0  0  0  0
   19.5860   11.4629   -0.8585 S   0  0  0  0  0  0  0  0  0  0  0  0
   20.2394   13.4189   -0.9911 S   0  0  0  0  0  0  0  0  0  0  0  0
   22.3456   13.4079   -0.9949 S   0  0  0  0  0  0  0  0  0  0  0  0
   23.0373   15.3970   -1.1305 S   0  0  0  0  0  0  0  0  0  0  0  0
   25.1477   15.3846   -1.1297 S   0  0  0  0  0  0  0  0  0  0  0  0
   25.8388   17.3735   -1.2651 S   0  0  0  0  0  0  0  0  0  0  0  0
   27.9485   17.3605   -1.2642 S   0  0  0  0  0  0  0  0  0  0  0  0
   28.6393   19.3491   -1.3996 S   0  0  0  0  0  0  0  0  0  0  0  0
   30.7487   19.3360   -1.3987 S   0  0  0  0  0  0  0  0  0  0  0  0
   31.4394   21.3245   -1.5341 S   0  0  0  0  0  0  0  0  0  0  0  0
   33.5487   21.3113   -1.5332 S   0  0  0  0  0  0  0  0  0  0  0  0
   34.2394   23.2999   -1.6686 S   0  0  0  0  0  0  0  0  0  0  0  0
   36.3487   23.2867   -1.6677 S   0  0  0  0  0  0  0  0  0  0  0  0
   37.0393   25.2752   -1.8031 S   0  0  0  0  0  0  0  0  0  0  0  0
   39.1486   25.2620   -1.8022 S   0  0  0  0  0  0  0  0  0  0  0  0
   39.8390   27.2505   -1.9376 S   0  0  0  0  0  0  0  0  0  0  0  0
   41.9480   27.2370   -1.9367 S   0  0  0  0  0  0  0  0  0  0  0  0
   42.6386   29.2250   -2.0720 S   0  0  0  0  0  0  0  0  0  0  0  0
   44.7474   29.2083   -2.0709 S   0  0  0  0  0  0  0  0  0  0  0  0
   45.4407   31.1949   -2.2062 S   0  0  0  0  0  0  0  0  0  0  0  0
   47.5504   31.1820   -2.2053 S   0  0  0  0  0  0  0  0  0  0  0  0
   48.2388   33.1727   -2.3408 S   0  0  0  0  0  0  0  0  0  0  0  0
   50.3487   33.1629   -2.3402 S   0  0  0  0  0  0  0  0  0  0  0  0
   51.0390   35.1519   -2.4756 S   0  0  0  0  0  0  0  0  0  0  0  0
   53.1487   35.1387   -2.4747 S   0  0  0  0  0  0  0  0  0  0  0  0
   53.8392   37.1272   -2.6101 S   0  0  0  0  0  0  0  0  0  0  0  0
   55.9485   37.1147   -2.6092 S   0  0  0  0  0  0  0  0  0  0  0  0
   56.6386   39.1035   -2.7446 S   0  0  0  0  0  0  0  0  0  0  0  0
   58.7481   39.0904   -2.7438 S   0  0  0  0  0  0  0  0  0  0  0  0
   59.4385   41.0792   -2.8792 S   0  0  0  0  0  0  0  0  0  0  0  0
   61.5480   41.0651   -2.8782 S   0  0  0  0  0  0  0  0  0  0  0  0
   62.2393   43.0534   -3.0136 S   0  0  0  0  0  0  0  0  0  0  0  0
   64.3486   43.0400   -3.0127 S   0  0  0  0  0  0  0  0  0  0  0  0
   65.0393   45.0285   -3.1481 S   0  0  0  0  0  0  0  0  0  0  0  0
   67.1487   45.0153   -3.1472 S   0  0  0  0  0  0  0  0  0  0  0  0
   67.8393   47.0038   -3.2826 S   0  0  0  0  0  0  0  0  0  0  0  0
   69.9486   46.9906   -3.2817 S   0  0  0  0  0  0  0  0  0  0  0  0
   70.6393   48.9792   -3.4171 S   0  0  0  0  0  0  0  0  0  0  0  0
   72.7486   48.9659   -3.4161 S   0  0  0  0  0  0  0  0  0  0  0  0
   73.4393   50.9545   -3.5515 S   0  0  0  0  0  0  0  0  0  0  0  0
   75.5486   50.9413   -3.5506 S   0  0  0  0  0  0  0  0  0  0  0  0
   76.2393   52.9298   -3.6860 S   0  0  0  0  0  0  0  0  0  0  0  0
   78.3486   52.9166   -3.6851 S   0  0  0  0  0  0  0  0  0  0  0  0
   79.0392   54.9051   -3.8205 S   0  0  0  0  0  0  0  0  0  0  0  0
   81.1486   54.8919   -3.8196 S   0  0  0  0  0  0  0  0  0  0  0  0
   81.8392   56.8805   -3.9550 S   0  0  0  0  0  0  0  0  0  0  0  0
   83.9486   56.8672   -3.9541 S   0  0  0  0  0  0  0  0  0  0  0  0
   84.6392   58.8558   -4.0895 S   0  0  0  0  0  0  0  0  0  0  0  0
   86.7486   58.8426   -4.0886 S   0  0  0  0  0  0  0  0  0  0  0  0
   87.4392   60.8311   -4.2240 S   0  0  0  0  0  0  0  0  0  0  0  0
   89.5486   60.8179   -4.2231 S   0  0  0  0  0  0  0  0  0  0  0  0
   90.2392   62.8064   -4.3585 S   0  0  0  0  0  0  0  0  0  0  0  0
   92.3484   62.7931   -4.3576 S   0  0  0  0  0  0  0  0  0  0  0  0
   93.0389   64.7815   -4.4930 S   0  0  0  0  0  0  0  0  0  0  0  0
   95.1478   64.7680   -4.4921 S   0  0  0  0  0  0  0  0  0  0  0  0
   95.8377   66.7560   -4.6274 S   0  0  0  0  0  0  0  0  0  0  0  0
   97.9456   66.7416   -4.6264 S   0  0  0  0  0  0  0  0  0  0  0  0
   98.6333   68.7283   -4.7617 S   0  0  0  0  0  0  0  0  0  0  0  0
  100.7380   68.7119   -4.7606 S   0  0  0  0  0  0  0  0  0  0  0  0
  101.4190   70.6958   -4.8956 S   0  0  0  0  0  0  0  0  0  0  0  0
  103.5158   70.6735   -4.8941 S   0  0  0  0  0  0  0  0  0  0  0  0
  104.1820   72.6477   -5.0409 S   0  0  0  0  0  0  0  0  0  0  0  0
  106.2604   72.6161   -5.0039 S   0  0  0  0  0  0  0  0  0  0  0  0
  106.9133   74.5800   -5.1642 S   0  0  0  0  0  0  0  0  0  0  0  0
  106.2028   75.5613   -3.5011 S   0  0  0  0  0  0  0  0  0  0  0  0
   15.6568    9.8271   -1.5908 H   0  0  0  0  0  0  0  0  0  0  0  0
   14.5043   10.6230   -0.9962 H   0  0  0  0  0  0  0  0  0  0  0  0
   13.0873   11.4982   -2.0705 H   0  0  0  0  0  0  0  0  0  0  0  0
   13.7059   12.8169   -4.3527 H   0  0  0  0  0  0  0  0  0  0  0  0
   12.2386   11.8394   -4.3099 H   0  0  0  0  0  0  0  0  0  0  0  0
   14.8789   10.8990   -5.1886 H   0  0  0  0  0  0  0  0  0  0  0  0
   13.6081    9.2463   -4.2772 H   0  0  0  0  0  0  0  0  0  0  0  0
   11.6355    9.9132   -6.2032 H   0  0  0  0  0  0  0  0  0  0  0  0
   12.7896    7.3744   -3.5436 H   0  0  0  0  0  0  0  0  0  0  0  0
  106.6760   76.8077   -3.6898 H   0  0  0  0  0  0  0  0  0  0  0  0
  1  2  1  0  0  0  0
  1 81  1  0  0  0  0
  1 82  1  0  0  0  0
  2  3  2  3  0  0  0
  3  4  1  0  0  0  0
  3 83  1  0  0  0  0
  4  5  1  0  0  0  0
  4 84  1  0  0  0  0
  4 85  1  0  0  0  0
  5  6  1  0  0  0  0
  5 86  1  0  0  0  0
  6  7  1  0  0  0  0
  6 87  1  0  0  0  0
  7  8  1  0  0  0  0
  7 88  1  0  0  0  0
  8  9  1  0  0  0  0
  9 10  1  0  0  0  0
  9 89  1  0  0  0  0
 10 11  1  0  0  0  0
 11 12  1  0  0  0  0
 12 13  1  0  0  0  0
 13 14  1  0  0  0  0
 14 15  1  0  0  0  0
 15 16  1  0  0  0  0
 16 17  1  0  0  0  0
 17 18  1  0  0  0  0
 18 19  1  0  0  0  0
 19 20  1  0  0  0  0
 20 21  1  0  0  0  0
 21 22  1  0  0  0  0
 22 23  1  0  0  0  0
 23 24  1  0  0  0  0
 24 25  1  0  0  0  0
 25 26  1  0  0  0  0
 26 27  1  0  0  0  0
 27 28  1  0  0  0  0
 28 29  1  0  0  0  0
 29 30  1  0  0  0  0
 30 31  1  0  0  0  0
 31 32  1  0  0  0  0
 32 33  1  0  0  0  0
 33 34  1  0  0  0  0
 34 35  1  0  0  0  0
 35 36  1  0  0  0  0
 36 37  1  0  0  0  0
 37 38  1  0  0  0  0
 38 39  1  0  0  0  0
 39 40  1  0  0  0  0
 40 41  1  0  0  0  0
 41 42  1  0  0  0  0
 42 43  1  0  0  0  0
 43 44  1  0  0  0  0
 44 45  1  0  0  0  0
 45 46  1  0  0  0  0
 46 47  1  0  0  0  0
 47 48  1  0  0  0  0
 48 49  1  0  0  0  0
 49 50  1  0  0  0  0
 50 51  1  0  0  0  0
 51 52  1  0  0  0  0
 52 53  1  0  0  0  0
 53 54  1  0  0  0  0
 54 55  1  0  0  0  0
 55 56  1  0  0  0  0
 56 57  1  0  0  0  0
 57 58  1  0  0  0  0
 58 59  1  0  0  0  0
 59 60  1  0  0  0  0
 60 61  1  0  0  0  0
 61 62  1  0  0  0  0
 62 63  1  0  0  0  0
 63 64  1  0  0  0  0
 64 65  1  0  0  0  0
 65 66  1  0  0  0  0
 66 67  1  0  0  0  0
 67 68  1  0  0  0  0
 68 69  1  0  0  0  0
 69 70  1  0  0  0  0
 70 71  1  0  0  0  0
 71 72  1  0  0  0  0
 72 73  1  0  0  0  0
 73 74  1  0  0  0  0
 74 75  1  0  0  0  0
 75 76  1  0  0  0  0
 76 77  1  0  0  0  0
 77 78  1  0  0  0  0
 78 79  1  0  0  0  0
 79 80  1  0  0  0  0
 80 90  1  0  0  0  0
M  END
$$$$
