
 OpenBabel04232216483D

 30 30  0  0  0  0  0  0  0  0999 V2000
    2.5633    0.0521    0.1439 C   0  0  0  0  0  0  0  0  0  0  0  0
    1.0643    0.0646    0.0980 C   0  0  0  0  0  0  0  0  0  0  0  0
    0.3185    0.6677    1.1142 C   0  0  0  0  0  0  0  0  0  0  0  0
   -1.0778    0.6595    1.0653 C   0  0  0  0  0  0  0  0  0  0  0  0
   -1.7529    0.0584   -0.0038 C   0  0  0  0  0  0  0  0  0  0  0  0
   -3.2615    0.0534   -0.0572 C   0  0  0  0  0  0  0  0  0  0  0  0
   -3.8946    1.4491   -0.0470 C   0  0  0  0  0  0  0  0  0  0  0  0
   -3.5069    2.3005   -1.2592 C   0  0  0  0  0  0  0  0  0  0  0  0
   -4.1780    3.6723   -1.1851 C   0  0  0  0  0  0  0  0  0  0  0  0
   -3.8022    4.5463   -2.3690 C   0  0  0  0  0  0  0  0  0  0  0  0
   -1.0035   -0.5477   -1.0204 C   0  0  0  0  0  0  0  0  0  0  0  0
    0.3948   -0.5440   -0.9692 C   0  0  0  0  0  0  0  0  0  0  0  0
    2.9438    0.5897    1.0184 H   0  0  0  0  0  0  0  0  0  0  0  0
    2.9731    0.5320   -0.7502 H   0  0  0  0  0  0  0  0  0  0  0  0
    2.9280   -0.9795    0.1983 H   0  0  0  0  0  0  0  0  0  0  0  0
    0.8145    1.1471    1.9538 H   0  0  0  0  0  0  0  0  0  0  0  0
   -1.6339    1.1306    1.8712 H   0  0  0  0  0  0  0  0  0  0  0  0
   -3.6268   -0.5104    0.8110 H   0  0  0  0  0  0  0  0  0  0  0  0
   -3.6090   -0.4931   -0.9426 H   0  0  0  0  0  0  0  0  0  0  0  0
   -3.6250    1.9805    0.8738 H   0  0  0  0  0  0  0  0  0  0  0  0
   -4.9849    1.3307   -0.0276 H   0  0  0  0  0  0  0  0  0  0  0  0
   -3.8036    1.7884   -2.1817 H   0  0  0  0  0  0  0  0  0  0  0  0
   -2.4202    2.4355   -1.2980 H   0  0  0  0  0  0  0  0  0  0  0  0
   -3.8828    4.1787   -0.2585 H   0  0  0  0  0  0  0  0  0  0  0  0
   -5.2670    3.5518   -1.1563 H   0  0  0  0  0  0  0  0  0  0  0  0
   -2.7212    4.7145   -2.4055 H   0  0  0  0  0  0  0  0  0  0  0  0
   -4.2949    5.5203   -2.2891 H   0  0  0  0  0  0  0  0  0  0  0  0
   -4.1116    4.0843   -3.3118 H   0  0  0  0  0  0  0  0  0  0  0  0
   -1.4981   -1.0262   -1.8619 H   0  0  0  0  0  0  0  0  0  0  0  0
    0.9561   -1.0190   -1.7678 H   0  0  0  0  0  0  0  0  0  0  0  0
  1  2  1  0  0  0  0
  1 13  1  0  0  0  0
  1 14  1  0  0  0  0
  1 15  1  0  0  0  0
  2  3  1  0  0  0  0
  2 12  2  0  0  0  0
  3  4  2  0  0  0  0
  3 16  1  0  0  0  0
  4  5  1  0  0  0  0
  4 17  1  0  0  0  0
  5  6  1  0  0  0  0
  5 11  2  0  0  0  0
  6  7  1  0  0  0  0
  6 18  1  0  0  0  0
  6 19  1  0  0  0  0
  7  8  1  0  0  0  0
  7 20  1  0  0  0  0
  7 21  1  0  0  0  0
  8  9  1  0  0  0  0
  8 22  1  0  0  0  0
  8 23  1  0  0  0  0
  9 10  1  0  0  0  0
  9 24  1  0  0  0  0
  9 25  1  0  0  0  0
 10 26  1  0  0  0  0
 10 27  1  0  0  0  0
 10 28  1  0  0  0  0
 11 12  1  0  0  0  0
 11 29  1  0  0  0  0
 12 30  1  0  0  0  0
M  END
$$$$
