
 OpenBabel04232216403D

175174  0  0  0  0  0  0  0  0999 V2000
   20.0145   22.1809   -8.7555 C   0  0  0  0  0  0  0  0  0  0  0  0
   20.8566   21.1978   -9.0950 C   0  0  0  0  0  0  0  0  0  0  0  0
   21.8016   21.3260  -10.2502 C   0  0  0  0  0  0  0  0  0  0  0  0
   23.2512   21.1890   -9.8000 C   0  0  0  0  0  0  0  0  0  0  0  0
   24.1485   21.3262  -10.9521 N   0  0  0  0  0  0  0  0  0  0  0  0
   25.4662   21.2020  -10.4973 N   0  0  0  0  0  0  0  0  0  0  0  0
   26.3566   21.3405  -11.6014 N   0  0  0  0  0  0  0  0  0  0  0  0
   27.6915   21.2093  -11.1588 N   0  0  0  0  0  0  0  0  0  0  0  0
   27.8980   19.9222  -10.5554 N   0  0  0  0  0  0  0  0  0  0  0  0
   27.6215   18.8872  -11.4977 N   0  0  0  0  0  0  0  0  0  0  0  0
   28.4814   19.0059  -12.6375 N   0  0  0  0  0  0  0  0  0  0  0  0
   29.8492   18.8866  -12.2232 N   0  0  0  0  0  0  0  0  0  0  0  0
   30.0599   17.6333  -11.5765 N   0  0  0  0  0  0  0  0  0  0  0  0
   29.7653   16.5868  -12.5030 N   0  0  0  0  0  0  0  0  0  0  0  0
   30.5963   16.7035  -13.6631 N   0  0  0  0  0  0  0  0  0  0  0  0
   31.9657   16.6089  -13.2576 N   0  0  0  0  0  0  0  0  0  0  0  0
   32.1933   15.3565  -12.6040 N   0  0  0  0  0  0  0  0  0  0  0  0
   31.8786   14.2998  -13.5179 N   0  0  0  0  0  0  0  0  0  0  0  0
   32.7024   14.4024  -14.6937 N   0  0  0  0  0  0  0  0  0  0  0  0
   34.0779   14.3158  -14.3077 N   0  0  0  0  0  0  0  0  0  0  0  0
   34.3304   13.0766  -13.6493 N   0  0  0  0  0  0  0  0  0  0  0  0
   34.0015   12.0135  -14.5338 N   0  0  0  0  0  0  0  0  0  0  0  0
   34.8048   12.0939  -15.7211 N   0  0  0  0  0  0  0  0  0  0  0  0
   36.1855   12.0466  -15.3615 N   0  0  0  0  0  0  0  0  0  0  0  0
   36.4453   10.8077  -14.6871 N   0  0  0  0  0  0  0  0  0  0  0  0
   36.1295    9.7032  -15.5561 N   0  0  0  0  0  0  0  0  0  0  0  0
   36.8980    9.7939  -16.7416 N   0  0  0  0  0  0  0  0  0  0  0  0
   38.2797    9.7360  -16.4123 N   0  0  0  0  0  0  0  0  0  0  0  0
   38.5601    8.5093  -15.7277 N   0  0  0  0  0  0  0  0  0  0  0  0
   38.2271    7.3921  -16.5660 N   0  0  0  0  0  0  0  0  0  0  0  0
   39.0035    7.4410  -17.7719 N   0  0  0  0  0  0  0  0  0  0  0  0
   40.3870    7.4274  -17.4432 N   0  0  0  0  0  0  0  0  0  0  0  0
   40.6978    6.2032  -16.7497 N   0  0  0  0  0  0  0  0  0  0  0  0
   40.3562    5.0931  -17.5669 N   0  0  0  0  0  0  0  0  0  0  0  0
   41.0969    5.1547  -18.7848 N   0  0  0  0  0  0  0  0  0  0  0  0
   42.4874    5.1283  -18.4747 N   0  0  0  0  0  0  0  0  0  0  0  0
   42.8078    3.9276  -17.7653 N   0  0  0  0  0  0  0  0  0  0  0  0
   42.4557    2.7932  -18.5617 N   0  0  0  0  0  0  0  0  0  0  0  0
   43.2004    2.8373  -19.7872 N   0  0  0  0  0  0  0  0  0  0  0  0
   44.6146    2.8186  -19.5101 N   0  0  0  0  0  0  0  0  0  0  0  0
   44.9453    1.6420  -18.7841 N   0  0  0  0  0  0  0  0  0  0  0  0
   44.6039    0.4988  -19.5680 N   0  0  0  0  0  0  0  0  0  0  0  0
   45.3195    0.5358  -20.8155 N   0  0  0  0  0  0  0  0  0  0  0  0
   46.7307    0.5356  -20.5581 N   0  0  0  0  0  0  0  0  0  0  0  0
   47.0852   -0.6436  -19.8338 N   0  0  0  0  0  0  0  0  0  0  0  0
   46.7178   -1.7861  -20.5855 N   0  0  0  0  0  0  0  0  0  0  0  0
   47.4199   -1.7703  -21.8451 N   0  0  0  0  0  0  0  0  0  0  0  0
   48.8394   -1.7654  -21.6181 N   0  0  0  0  0  0  0  0  0  0  0  0
   49.2115   -2.9226  -20.8896 N   0  0  0  0  0  0  0  0  0  0  0  0
   48.8519   -4.0857  -21.6349 N   0  0  0  0  0  0  0  0  0  0  0  0
   49.5192   -4.0746  -22.9083 N   0  0  0  0  0  0  0  0  0  0  0  0
   50.9424   -4.0512  -22.6970 N   0  0  0  0  0  0  0  0  0  0  0  0
   51.3132   -5.2143  -21.9516 N   0  0  0  0  0  0  0  0  0  0  0  0
   50.9457   -6.3900  -22.6655 N   0  0  0  0  0  0  0  0  0  0  0  0
   51.5985   -6.4165  -23.9444 N   0  0  0  0  0  0  0  0  0  0  0  0
   53.0281   -6.3965  -23.7752 N   0  0  0  0  0  0  0  0  0  0  0  0
   53.4141   -7.5217  -23.0064 N   0  0  0  0  0  0  0  0  0  0  0  0
   53.0262   -8.7006  -23.7067 N   0  0  0  0  0  0  0  0  0  0  0  0
   53.6434   -8.7100  -24.9958 N   0  0  0  0  0  0  0  0  0  0  0  0
   55.0780   -8.6816  -24.8318 N   0  0  0  0  0  0  0  0  0  0  0  0
   55.5111   -9.8355  -24.0689 N   0  0  0  0  0  0  0  0  0  0  0  0
   55.1257  -11.0344  -24.7475 N   0  0  0  0  0  0  0  0  0  0  0  0
   55.7369  -11.0633  -26.0254 N   0  0  0  0  0  0  0  0  0  0  0  0
   57.1432  -11.0191  -25.8798 N   0  0  0  0  0  0  0  0  0  0  0  0
   57.5827  -12.1275  -25.1126 N   0  0  0  0  0  0  0  0  0  0  0  0
   57.2139  -13.3495  -25.7524 N   0  0  0  0  0  0  0  0  0  0  0  0
   57.8141  -13.4222  -27.0474 N   0  0  0  0  0  0  0  0  0  0  0  0
   59.2688  -13.3525  -26.9419 N   0  0  0  0  0  0  0  0  0  0  0  0
   59.6947  -14.4859  -26.1223 C   0  0  0  0  0  0  0  0  0  0  0  0
   59.3344  -15.7757  -26.7501 N   0  0  0  0  0  0  0  0  0  0  0  0
   59.9225  -15.8270  -28.0779 C   0  0  0  0  0  0  0  0  0  0  0  0
   59.5272  -17.1340  -28.7338 C   0  0  0  0  0  0  0  0  0  0  0  0
   60.1504  -17.2410  -30.1127 C   0  0  0  0  0  0  0  0  0  0  0  0
   59.7574  -18.5474  -30.7695 C   0  0  0  0  0  0  0  0  0  0  0  0
   60.3786  -18.6509  -32.1457 C   0  0  0  0  0  0  0  0  0  0  0  0
   59.9850  -19.9568  -32.8009 C   0  0  0  0  0  0  0  0  0  0  0  0
   60.6062  -20.0600  -34.1767 C   0  0  0  0  0  0  0  0  0  0  0  0
   60.2145  -21.3663  -34.8310 C   0  0  0  0  0  0  0  0  0  0  0  0
   60.8374  -21.4711  -36.2072 C   0  0  0  0  0  0  0  0  0  0  0  0
   60.4441  -22.7752  -36.8559 C   0  0  0  0  0  0  0  0  0  0  0  0
   19.3394   22.0787   -7.9191 H   0  0  0  0  0  0  0  0  0  0  0  0
   20.0022   23.1065   -9.3177 H   0  0  0  0  0  0  0  0  0  0  0  0
   20.8494   20.2798   -8.5154 H   0  0  0  0  0  0  0  0  0  0  0  0
   21.6636   22.3006  -10.7323 H   0  0  0  0  0  0  0  0  0  0  0  0
   21.5749   20.5504  -10.9893 H   0  0  0  0  0  0  0  0  0  0  0  0
   23.3824   20.2111   -9.3254 H   0  0  0  0  0  0  0  0  0  0  0  0
   23.4669   21.9675   -9.0591 H   0  0  0  0  0  0  0  0  0  0  0  0
   23.9797   22.2458  -11.3714 H   0  0  0  0  0  0  0  0  0  0  0  0
   25.5889   20.2738  -10.0703 H   0  0  0  0  0  0  0  0  0  0  0  0
   26.2167   22.2492  -12.0496 H   0  0  0  0  0  0  0  0  0  0  0  0
   27.9346   21.9164  -10.4759 H   0  0  0  0  0  0  0  0  0  0  0  0
   27.2941   19.8315   -9.7329 H   0  0  0  0  0  0  0  0  0  0  0  0
   26.6676   18.9368  -11.8416 H   0  0  0  0  0  0  0  0  0  0  0  0
   28.3300   19.9169  -13.0865 H   0  0  0  0  0  0  0  0  0  0  0  0
   30.0711   19.6203  -11.5533 H   0  0  0  0  0  0  0  0  0  0  0  0
   29.4375   17.5706  -10.7604 H   0  0  0  0  0  0  0  0  0  0  0  0
   28.7956   16.6598  -12.8057 H   0  0  0  0  0  0  0  0  0  0  0  0
   30.4203   17.6195  -14.0964 H   0  0  0  0  0  0  0  0  0  0  0  0
   32.1808   17.3667  -12.6007 H   0  0  0  0  0  0  0  0  0  0  0  0
   31.5796   15.2936  -11.7794 H   0  0  0  0  0  0  0  0  0  0  0  0
   30.8855   14.3675  -13.7841 H   0  0  0  0  0  0  0  0  0  0  0  0
   32.5315   15.3119  -15.1468 H   0  0  0  0  0  0  0  0  0  0  0  0
   34.3056   15.0772  -13.6674 H   0  0  0  0  0  0  0  0  0  0  0  0
   33.7387   12.9945  -12.8231 H   0  0  0  0  0  0  0  0  0  0  0  0
   33.0059   12.0759  -14.7738 H   0  0  0  0  0  0  0  0  0  0  0  0
   34.6422   12.9874  -16.1774 H   0  0  0  0  0  0  0  0  0  0  0  0
   36.3950   12.8288  -14.7351 H   0  0  0  0  0  0  0  0  0  0  0  0
   35.8690   10.7589  -13.8387 H   0  0  0  0  0  0  0  0  0  0  0  0
   35.1412    9.7414  -15.8144 H   0  0  0  0  0  0  0  0  0  0  0  0
   36.6928   10.6676  -17.2368 H   0  0  0  0  0  0  0  0  0  0  0  0
   38.5317   10.4984  -15.7927 H   0  0  0  0  0  0  0  0  0  0  0  0
   37.9966    8.4727  -14.8702 H   0  0  0  0  0  0  0  0  0  0  0  0
   37.2292    7.4282  -16.7988 H   0  0  0  0  0  0  0  0  0  0  0  0
   38.8232    8.3152  -18.2548 H   0  0  0  0  0  0  0  0  0  0  0  0
   40.6130    8.2367  -16.8532 H   0  0  0  0  0  0  0  0  0  0  0  0
   40.1474    6.1833  -15.8762 H   0  0  0  0  0  0  0  0  0  0  0  0
   39.3706    5.1129  -17.8144 H   0  0  0  0  0  0  0  0  0  0  0  0
   40.8606    6.0238  -19.2795 H   0  0  0  0  0  0  0  0  0  0  0  0
   42.7244    5.9412  -17.8970 H   0  0  0  0  0  0  0  0  0  0  0  0
   42.2702    3.8625  -16.9068 H   0  0  0  0  0  0  0  0  0  0  0  0
   41.4487    2.8173  -18.7568 H   0  0  0  0  0  0  0  0  0  0  0  0
   42.9587    3.6977  -20.2962 H   0  0  0  0  0  0  0  0  0  0  0  0
   44.8682    3.6130  -18.9286 H   0  0  0  0  0  0  0  0  0  0  0  0
   44.4228    1.5992  -17.9147 H   0  0  0  0  0  0  0  0  0  0  0  0
   43.5942    0.5086  -19.7499 H   0  0  0  0  0  0  0  0  0  0  0  0
   45.0634    1.3889  -21.3254 H   0  0  0  0  0  0  0  0  0  0  0  0
   46.9836    1.3389  -19.9879 H   0  0  0  0  0  0  0  0  0  0  0  0
   46.5762   -0.6719  -18.9520 H   0  0  0  0  0  0  0  0  0  0  0  0
   45.7101   -1.7912  -20.7502 H   0  0  0  0  0  0  0  0  0  0  0  0
   47.1514   -0.9232  -22.3548 H   0  0  0  0  0  0  0  0  0  0  0  0
   49.0934   -0.9443  -21.0616 H   0  0  0  0  0  0  0  0  0  0  0  0
   48.7245   -2.9519  -19.9930 H   0  0  0  0  0  0  0  0  0  0  0  0
   47.8355   -4.0746  -21.7838 H   0  0  0  0  0  0  0  0  0  0  0  0
   49.2323   -3.2202  -23.4011 H   0  0  0  0  0  0  0  0  0  0  0  0
   51.1658   -3.1984  -22.1551 H   0  0  0  0  0  0  0  0  0  0  0  0
   50.8491   -5.2183  -21.0363 H   0  0  0  0  0  0  0  0  0  0  0  0
   49.9446   -6.4227  -22.8291 H   0  0  0  0  0  0  0  0  0  0  0  0
   51.3375   -5.5842  -24.4625 H   0  0  0  0  0  0  0  0  0  0  0  0
   53.2522   -5.5436  -23.2482 H   0  0  0  0  0  0  0  0  0  0  0  0
   52.9450   -7.4721  -22.0893 H   0  0  0  0  0  0  0  0  0  0  0  0
   52.0032   -8.7059  -23.8188 H   0  0  0  0  0  0  0  0  0  0  0  0
   53.3511   -7.8814  -25.5259 H   0  0  0  0  0  0  0  0  0  0  0  0
   55.3303   -7.8211  -24.3269 H   0  0  0  0  0  0  0  0  0  0  0  0
   55.0608   -9.8155  -23.1514 H   0  0  0  0  0  0  0  0  0  0  0  0
   54.1168  -11.0660  -24.8728 H   0  0  0  0  0  0  0  0  0  0  0  0
   55.4469  -10.2647  -26.5855 H   0  0  0  0  0  0  0  0  0  0  0  0
   57.4205  -10.1688  -25.3968 H   0  0  0  0  0  0  0  0  0  0  0  0
   57.1363  -12.1006  -24.1964 H   0  0  0  0  0  0  0  0  0  0  0  0
   56.1992  -13.3631  -25.8569 H   0  0  0  0  0  0  0  0  0  0  0  0
   57.4852  -12.6042  -27.5691 H   0  0  0  0  0  0  0  0  0  0  0  0
   59.4642  -12.4736  -26.4444 H   0  0  0  0  0  0  0  0  0  0  0  0
   59.2563  -14.4381  -25.1127 H   0  0  0  0  0  0  0  0  0  0  0  0
   60.7784  -14.4346  -25.9913 H   0  0  0  0  0  0  0  0  0  0  0  0
   58.3082  -15.7551  -26.8356 H   0  0  0  0  0  0  0  0  0  0  0  0
   61.0108  -15.7817  -27.9966 H   0  0  0  0  0  0  0  0  0  0  0  0
   59.5853  -15.0007  -28.7104 H   0  0  0  0  0  0  0  0  0  0  0  0
   58.4377  -17.1918  -28.8255 H   0  0  0  0  0  0  0  0  0  0  0  0
   59.8641  -17.9756  -28.1196 H   0  0  0  0  0  0  0  0  0  0  0  0
   61.2405  -17.1879  -30.0291 H   0  0  0  0  0  0  0  0  0  0  0  0
   59.8149  -16.4047  -30.7340 H   0  0  0  0  0  0  0  0  0  0  0  0
   58.6677  -18.6024  -30.8543 H   0  0  0  0  0  0  0  0  0  0  0  0
   60.0947  -19.3851  -30.1513 H   0  0  0  0  0  0  0  0  0  0  0  0
   61.4684  -18.5964  -32.0616 H   0  0  0  0  0  0  0  0  0  0  0  0
   60.0414  -17.8137  -32.7646 H   0  0  0  0  0  0  0  0  0  0  0  0
   58.8953  -20.0114  -32.8852 H   0  0  0  0  0  0  0  0  0  0  0  0
   60.3223  -20.7941  -32.1822 H   0  0  0  0  0  0  0  0  0  0  0  0
   61.6958  -20.0040  -34.0926 H   0  0  0  0  0  0  0  0  0  0  0  0
   60.2678  -19.2235  -34.7958 H   0  0  0  0  0  0  0  0  0  0  0  0
   59.1245  -21.4221  -34.9163 H   0  0  0  0  0  0  0  0  0  0  0  0
   60.5513  -22.2033  -34.2109 H   0  0  0  0  0  0  0  0  0  0  0  0
   61.9265  -21.4185  -36.1236 H   0  0  0  0  0  0  0  0  0  0  0  0
   60.4996  -20.6373  -36.8289 H   0  0  0  0  0  0  0  0  0  0  0  0
   60.7863  -23.6172  -36.2485 H   0  0  0  0  0  0  0  0  0  0  0  0
   60.8918  -22.8536  -37.8483 H   0  0  0  0  0  0  0  0  0  0  0  0
   59.3571  -22.8347  -36.9550 H   0  0  0  0  0  0  0  0  0  0  0  0
  1  2  2  0  0  0  0
  1 81  1  0  0  0  0
  1 82  1  0  0  0  0
  2  3  1  0  0  0  0
  2 83  1  0  0  0  0
  3  4  1  0  0  0  0
  3 84  1  0  0  0  0
  3 85  1  0  0  0  0
  4  5  1  0  0  0  0
  4 86  1  0  0  0  0
  4 87  1  0  0  0  0
  5  6  1  0  0  0  0
  5 88  1  0  0  0  0
  6  7  1  0  0  0  0
  6 89  1  0  0  0  0
  7  8  1  0  0  0  0
  7 90  1  0  0  0  0
  8  9  1  0  0  0  0
  8 91  1  0  0  0  0
  9 10  1  0  0  0  0
  9 92  1  0  0  0  0
 10 11  1  0  0  0  0
 10 93  1  0  0  0  0
 11 12  1  0  0  0  0
 11 94  1  0  0  0  0
 12 13  1  0  0  0  0
 12 95  1  0  0  0  0
 13 14  1  0  0  0  0
 13 96  1  0  0  0  0
 14 15  1  0  0  0  0
 14 97  1  0  0  0  0
 15 16  1  0  0  0  0
 15 98  1  0  0  0  0
 16 17  1  0  0  0  0
 16 99  1  0  0  0  0
 17 18  1  0  0  0  0
 17100  1  0  0  0  0
 18 19  1  0  0  0  0
 18101  1  0  0  0  0
 19 20  1  0  0  0  0
 19102  1  0  0  0  0
 20 21  1  0  0  0  0
 20103  1  0  0  0  0
 21 22  1  0  0  0  0
 21104  1  0  0  0  0
 22 23  1  0  0  0  0
 22105  1  0  0  0  0
 23 24  1  0  0  0  0
 23106  1  0  0  0  0
 24 25  1  0  0  0  0
 24107  1  0  0  0  0
 25 26  1  0  0  0  0
 25108  1  0  0  0  0
 26 27  1  0  0  0  0
 26109  1  0  0  0  0
 27 28  1  0  0  0  0
 27110  1  0  0  0  0
 28 29  1  0  0  0  0
 28111  1  0  0  0  0
 29 30  1  0  0  0  0
 29112  1  0  0  0  0
 30 31  1  0  0  0  0
 30113  1  0  0  0  0
 31 32  1  0  0  0  0
 31114  1  0  0  0  0
 32 33  1  0  0  0  0
 32115  1  0  0  0  0
 33 34  1  0  0  0  0
 33116  1  0  0  0  0
 34 35  1  0  0  0  0
 34117  1  0  0  0  0
 35 36  1  0  0  0  0
 35118  1  0  0  0  0
 36 37  1  0  0  0  0
 36119  1  0  0  0  0
 37 38  1  0  0  0  0
 37120  1  0  0  0  0
 38 39  1  0  0  0  0
 38121  1  0  0  0  0
 39 40  1  0  0  0  0
 39122  1  0  0  0  0
 40 41  1  0  0  0  0
 40123  1  0  0  0  0
 41 42  1  0  0  0  0
 41124  1  0  0  0  0
 42 43  1  0  0  0  0
 42125  1  0  0  0  0
 43 44  1  0  0  0  0
 43126  1  0  0  0  0
 44 45  1  0  0  0  0
 44127  1  0  0  0  0
 45 46  1  0  0  0  0
 45128  1  0  0  0  0
 46 47  1  0  0  0  0
 46129  1  0  0  0  0
 47 48  1  0  0  0  0
 47130  1  0  0  0  0
 48 49  1  0  0  0  0
 48131  1  0  0  0  0
 49 50  1  0  0  0  0
 49132  1  0  0  0  0
 50 51  1  0  0  0  0
 50133  1  0  0  0  0
 51 52  1  0  0  0  0
 51134  1  0  0  0  0
 52 53  1  0  0  0  0
 52135  1  0  0  0  0
 53 54  1  0  0  0  0
 53136  1  0  0  0  0
 54 55  1  0  0  0  0
 54137  1  0  0  0  0
 55 56  1  0  0  0  0
 55138  1  0  0  0  0
 56 57  1  0  0  0  0
 56139  1  0  0  0  0
 57 58  1  0  0  0  0
 57140  1  0  0  0  0
 58 59  1  0  0  0  0
 58141  1  0  0  0  0
 59 60  1  0  0  0  0
 59142  1  0  0  0  0
 60 61  1  0  0  0  0
 60143  1  0  0  0  0
 61 62  1  0  0  0  0
 61144  1  0  0  0  0
 62 63  1  0  0  0  0
 62145  1  0  0  0  0
 63 64  1  0  0  0  0
 63146  1  0  0  0  0
 64 65  1  0  0  0  0
 64147  1  0  0  0  0
 65 66  1  0  0  0  0
 65148  1  0  0  0  0
 66 67  1  0  0  0  0
 66149  1  0  0  0  0
 67 68  1  0  0  0  0
 67150  1  0  0  0  0
 68 69  1  0  0  0  0
 68151  1  0  0  0  0
 69 70  1  0  0  0  0
 69152  1  0  0  0  0
 69153  1  0  0  0  0
 70 71  1  0  0  0  0
 70154  1  0  0  0  0
 71 72  1  0  0  0  0
 71155  1  0  0  0  0
 71156  1  0  0  0  0
 72 73  1  0  0  0  0
 72157  1  0  0  0  0
 72158  1  0  0  0  0
 73 74  1  0  0  0  0
 73159  1  0  0  0  0
 73160  1  0  0  0  0
 74 75  1  0  0  0  0
 74161  1  0  0  0  0
 74162  1  0  0  0  0
 75 76  1  0  0  0  0
 75163  1  0  0  0  0
 75164  1  0  0  0  0
 76 77  1  0  0  0  0
 76165  1  0  0  0  0
 76166  1  0  0  0  0
 77 78  1  0  0  0  0
 77167  1  0  0  0  0
 77168  1  0  0  0  0
 78 79  1  0  0  0  0
 78169  1  0  0  0  0
 78170  1  0  0  0  0
 79 80  1  0  0  0  0
 79171  1  0  0  0  0
 79172  1  0  0  0  0
 80173  1  0  0  0  0
 80174  1  0  0  0  0
 80175  1  0  0  0  0
M  END
$$$$
