
 OpenBabel04232216443D

 62 63  0  0  0  0  0  0  0  0999 V2000
    3.2319    1.3954    1.0057 C   0  0  0  0  0  0  0  0  0  0  0  0
    4.2973    0.8151    1.9419 C   0  0  0  0  0  0  0  0  0  0  0  0
    4.0201   -0.5742    2.3758 C   0  0  0  0  0  0  0  0  0  0  0  0
    2.6941   -0.7009    2.8874 N   0  0  0  0  0  0  0  0  0  0  0  0
    2.2213   -1.4625    4.0587 C   0  0  0  0  0  0  0  0  0  0  0  0
    2.9693   -1.3697    5.4027 C   0  0  0  0  0  0  0  0  0  0  0  0
    4.0839   -0.3571    5.6318 C   0  0  0  0  0  0  0  0  0  0  0  0
    3.8774    0.6049    6.8077 C   0  0  0  0  0  0  0  0  0  0  0  0
    2.8686    1.7261    6.5490 C   0  0  0  0  0  0  0  0  0  0  0  0
    1.4131    1.3468    6.8398 C   0  0  0  0  0  0  0  0  0  0  0  0
    0.4302    1.9091    5.8078 C   0  0  0  0  0  0  0  0  0  0  0  0
   -0.5291    0.8768    5.2162 C   0  0  0  0  0  0  0  0  0  0  0  0
   -0.0304    0.0576    4.0083 C   0  0  0  0  0  0  0  0  0  0  0  0
    0.6712   -1.2930    4.2662 C   0  0  0  0  0  0  0  0  0  0  0  0
    4.5549   -1.5322    1.5424 C   0  0  0  0  0  0  0  0  0  0  0  0
    4.6519   -1.3488    0.0407 C   0  0  0  0  0  0  0  0  0  0  0  0
    5.7266   -2.2039    2.1482 C   0  0  0  0  0  0  0  0  0  0  0  0
    6.9959   -1.7324    1.9888 C   0  0  0  0  0  0  0  0  0  0  0  0
    7.6426   -1.2109    0.7221 C   0  0  0  0  0  0  0  0  0  0  0  0
    7.6250   -1.2918    3.2593 C   0  0  0  0  0  0  0  0  0  0  0  0
    8.2407   -0.0917    3.2035 C   0  0  0  0  0  0  0  0  0  0  0  0
    9.6984    0.0132    2.8404 C   0  0  0  0  0  0  0  0  0  0  0  0
    7.5486    1.1109    3.6427 C   0  0  0  0  0  0  0  0  0  0  0  0
    6.4097    1.7069    3.2442 C   0  0  0  0  0  0  0  0  0  0  0  0
    5.3458    1.6196    2.2593 C   0  0  0  0  0  0  0  0  0  0  0  0
    2.9600    2.4081    1.3146 H   0  0  0  0  0  0  0  0  0  0  0  0
    3.5987    1.4244   -0.0236 H   0  0  0  0  0  0  0  0  0  0  0  0
    2.3007    0.8245    0.9949 H   0  0  0  0  0  0  0  0  0  0  0  0
    2.1426   -1.0549    2.1036 H   0  0  0  0  0  0  0  0  0  0  0  0
    2.3228   -2.5186    3.7664 H   0  0  0  0  0  0  0  0  0  0  0  0
    3.4352   -2.3591    5.5352 H   0  0  0  0  0  0  0  0  0  0  0  0
    2.2598   -1.3482    6.2339 H   0  0  0  0  0  0  0  0  0  0  0  0
    4.3218    0.2215    4.7457 H   0  0  0  0  0  0  0  0  0  0  0  0
    4.9888   -0.9360    5.8642 H   0  0  0  0  0  0  0  0  0  0  0  0
    4.8499    1.0838    6.9851 H   0  0  0  0  0  0  0  0  0  0  0  0
    3.6335    0.0578    7.7251 H   0  0  0  0  0  0  0  0  0  0  0  0
    3.0008    2.1106    5.5317 H   0  0  0  0  0  0  0  0  0  0  0  0
    3.1261    2.5576    7.2196 H   0  0  0  0  0  0  0  0  0  0  0  0
    1.1550    1.7794    7.8177 H   0  0  0  0  0  0  0  0  0  0  0  0
    1.2722    0.2742    6.9695 H   0  0  0  0  0  0  0  0  0  0  0  0
    0.9321    2.4623    5.0059 H   0  0  0  0  0  0  0  0  0  0  0  0
   -0.1850    2.6548    6.3344 H   0  0  0  0  0  0  0  0  0  0  0  0
   -1.3900    1.4565    4.8478 H   0  0  0  0  0  0  0  0  0  0  0  0
   -0.9397    0.2242    5.9994 H   0  0  0  0  0  0  0  0  0  0  0  0
    0.5037    0.6840    3.2929 H   0  0  0  0  0  0  0  0  0  0  0  0
   -0.9660   -0.2218    3.4941 H   0  0  0  0  0  0  0  0  0  0  0  0
    0.2153   -1.9903    3.5457 H   0  0  0  0  0  0  0  0  0  0  0  0
    0.3658   -1.6884    5.2431 H   0  0  0  0  0  0  0  0  0  0  0  0
    3.6560   -1.2857   -0.4067 H   0  0  0  0  0  0  0  0  0  0  0  0
    5.1488   -2.2003   -0.4385 H   0  0  0  0  0  0  0  0  0  0  0  0
    5.2038   -0.4408   -0.2406 H   0  0  0  0  0  0  0  0  0  0  0  0
    5.4407   -2.5940    3.1271 H   0  0  0  0  0  0  0  0  0  0  0  0
    7.1892   -1.5883   -0.1950 H   0  0  0  0  0  0  0  0  0  0  0  0
    8.6873   -1.5435    0.6765 H   0  0  0  0  0  0  0  0  0  0  0  0
    7.6296   -0.1177    0.6693 H   0  0  0  0  0  0  0  0  0  0  0  0
    6.8855   -1.3778    4.0580 H   0  0  0  0  0  0  0  0  0  0  0  0
    9.8299    0.4533    1.8463 H   0  0  0  0  0  0  0  0  0  0  0  0
   10.1828   -0.9714    2.8379 H   0  0  0  0  0  0  0  0  0  0  0  0
   10.2469    0.6277    3.5633 H   0  0  0  0  0  0  0  0  0  0  0  0
    8.1327    1.6505    4.3860 H   0  0  0  0  0  0  0  0  0  0  0  0
    6.2819    2.6739    3.7541 H   0  0  0  0  0  0  0  0  0  0  0  0
    5.2960    2.5910    1.7504 H   0  0  0  0  0  0  0  0  0  0  0  0
  1  2  1  0  0  0  0
  1 26  1  0  0  0  0
  1 27  1  0  0  0  0
  1 28  1  0  0  0  0
  2  3  1  0  0  0  0
  2 25  2  0  0  0  0
  3  4  1  0  0  0  0
  3 15  2  0  0  0  0
  4  5  1  0  0  0  0
  4 29  1  0  0  0  0
  5  6  1  0  0  0  0
  5 14  1  0  0  0  0
  5 30  1  0  0  0  0
  6  7  1  0  0  0  0
  6 31  1  0  0  0  0
  6 32  1  0  0  0  0
  7  8  1  0  0  0  0
  7 33  1  0  0  0  0
  7 34  1  0  0  0  0
  8  9  1  0  0  0  0
  8 35  1  0  0  0  0
  8 36  1  0  0  0  0
  9 10  1  0  0  0  0
  9 37  1  0  0  0  0
  9 38  1  0  0  0  0
 10 11  1  0  0  0  0
 10 39  1  0  0  0  0
 10 40  1  0  0  0  0
 11 12  1  0  0  0  0
 11 41  1  0  0  0  0
 11 42  1  0  0  0  0
 12 13  1  0  0  0  0
 12 43  1  0  0  0  0
 12 44  1  0  0  0  0
 13 14  1  0  0  0  0
 13 45  1  0  0  0  0
 13 46  1  0  0  0  0
 14 47  1  0  0  0  0
 14 48  1  0  0  0  0
 15 16  1  0  0  0  0
 15 17  1  0  0  0  0
 16 49  1  0  0  0  0
 16 50  1  0  0  0  0
 16 51  1  0  0  0  0
 17 18  2  0  0  0  0
 17 52  1  0  0  0  0
 18 19  1  0  0  0  0
 18 20  1  0  0  0  0
 19 53  1  0  0  0  0
 19 54  1  0  0  0  0
 19 55  1  0  0  0  0
 20 21  2  0  0  0  0
 20 56  1  0  0  0  0
 21 22  1  0  0  0  0
 21 23  1  0  0  0  0
 22 57  1  0  0  0  0
 22 58  1  0  0  0  0
 22 59  1  0  0  0  0
 23 24  2  0  0  0  0
 23 60  1  0  0  0  0
 24 25  1  0  0  0  0
 24 61  1  0  0  0  0
 25 62  1  0  0  0  0
M  END
$$$$
