
 OpenBabel04232216503D

 64 65  0  0  1  0  0  0  0  0999 V2000
    5.4570   -2.9366   -2.3631 C   0  0  0  0  0  0  0  0  0  0  0  0
    6.4166   -4.3860   -1.5348 C   0  0  3  0  0  0  0  0  0  0  0  0
    4.9167   -4.0584   -0.4641 C   0  0  0  0  0  0  0  0  0  0  0  0
    5.0109   -2.6567    0.4728 C   0  0  0  0  0  0  0  0  0  0  0  0
    5.6968   -3.3363    1.5622 C   0  0  0  0  0  0  0  0  0  0  0  0
    7.0958   -3.0433    1.2435 C   0  0  0  0  0  0  0  0  0  0  0  0
    7.5583   -4.3901    1.5104 C   0  0  0  0  0  0  0  0  0  0  0  0
    8.9250   -4.2718    1.1276 C   0  0  0  0  0  0  0  0  0  0  0  0
    9.1844   -5.6890    1.3127 C   0  0  0  0  0  0  0  0  0  0  0  0
   10.5813   -5.5420    1.1607 C   0  0  0  0  0  0  0  0  0  0  0  0
   10.9695   -6.8506    1.6760 C   0  0  0  0  0  0  0  0  0  0  0  0
   12.3625   -6.4744    1.7318 C   0  0  0  0  0  0  0  0  0  0  0  0
   13.0591   -7.7335    1.6220 C   0  0  0  0  0  0  0  0  0  0  0  0
   13.7390   -7.0593    0.4790 C   0  0  0  0  0  0  0  0  0  0  0  0
   14.6339   -6.2159    0.5780 O   0  0  0  0  0  0  0  0  0  0  0  0
   13.2383   -7.6360   -0.7972 C   0  0  0  0  0  0  0  0  0  0  0  0
   11.6570   -7.8256   -1.1136 C   0  0  0  0  0  0  0  0  0  0  0  0
   12.2044   -9.5511   -1.1923 C   0  0  0  0  0  0  0  0  0  0  0  0
   13.5117  -10.8473   -0.4467 C   0  0  0  0  0  0  0  0  0  0  0  0
   15.2536  -10.9733   -0.3604 C   0  0  0  0  0  0  0  0  0  0  0  0
   15.9061   -9.6357   -0.4780 C   0  0  0  0  0  0  0  0  0  0  0  0
   14.7326   -8.6580   -0.2424 C   0  0  0  0  0  0  0  0  0  0  0  0
    9.8559   -6.8778   -1.4556 C   0  0  0  0  0  0  0  0  0  0  0  0
    8.1419   -5.5387   -1.7036 C   0  0  0  0  0  0  0  0  0  0  0  0
    4.6299   -3.1767   -3.0491 H   0  0  0  0  0  0  0  0  0  0  0  0
    5.9598   -1.9529   -2.3327 H   0  0  0  0  0  0  0  0  0  0  0  0
    4.6756   -2.3933   -1.6937 H   0  0  0  0  0  0  0  0  0  0  0  0
    7.0970   -3.5373   -1.5917 H   0  0  0  0  0  0  0  0  0  0  0  0
    3.9612   -3.8486   -1.0554 H   0  0  0  0  0  0  0  0  0  0  0  0
    4.3485   -4.7711    0.1720 H   0  0  0  0  0  0  0  0  0  0  0  0
    4.1936   -2.1076    0.9715 H   0  0  0  0  0  0  0  0  0  0  0  0
    5.6106   -1.8261    0.0177 H   0  0  0  0  0  0  0  0  0  0  0  0
    5.4998   -4.4197    1.4625 H   0  0  0  0  0  0  0  0  0  0  0  0
    5.3828   -3.2333    2.5875 H   0  0  0  0  0  0  0  0  0  0  0  0
    7.5356   -2.2583    1.8484 H   0  0  0  0  0  0  0  0  0  0  0  0
    7.3402   -2.7880    0.1953 H   0  0  0  0  0  0  0  0  0  0  0  0
    7.0743   -5.1843    0.9058 H   0  0  0  0  0  0  0  0  0  0  0  0
    7.4220   -4.6712    2.5616 H   0  0  0  0  0  0  0  0  0  0  0  0
    9.4444   -3.5894    1.8076 H   0  0  0  0  0  0  0  0  0  0  0  0
    9.1375   -3.8965    0.1222 H   0  0  0  0  0  0  0  0  0  0  0  0
    8.7602   -6.3984    0.6074 H   0  0  0  0  0  0  0  0  0  0  0  0
    8.8976   -6.0801    2.2919 H   0  0  0  0  0  0  0  0  0  0  0  0
   11.0063   -4.7321    1.7793 H   0  0  0  0  0  0  0  0  0  0  0  0
   10.8529   -5.2857    0.1108 H   0  0  0  0  0  0  0  0  0  0  0  0
   10.6380   -7.6264    0.9713 H   0  0  0  0  0  0  0  0  0  0  0  0
   10.6083   -7.1570    2.6513 H   0  0  0  0  0  0  0  0  0  0  0  0
   12.7359   -5.7943    2.4884 H   0  0  0  0  0  0  0  0  0  0  0  0
   12.4797   -5.8108    0.8203 H   0  0  0  0  0  0  0  0  0  0  0  0
   12.4200   -8.5768    1.2809 H   0  0  0  0  0  0  0  0  0  0  0  0
   13.6105   -8.1461    2.4647 H   0  0  0  0  0  0  0  0  0  0  0  0
   12.7290   -9.6004   -2.1751 H   0  0  0  0  0  0  0  0  0  0  0  0
   11.3526  -10.2519   -1.2554 H   0  0  0  0  0  0  0  0  0  0  0  0
   13.3377  -11.8069   -0.9636 H   0  0  0  0  0  0  0  0  0  0  0  0
   13.2413  -11.0316    0.6109 H   0  0  0  0  0  0  0  0  0  0  0  0
   15.7716  -11.6910   -1.0255 H   0  0  0  0  0  0  0  0  0  0  0  0
   15.5654  -11.4034    0.6359 H   0  0  0  0  0  0  0  0  0  0  0  0
   16.6347   -9.4721   -1.2804 H   0  0  0  0  0  0  0  0  0  0  0  0
   16.6178   -9.5759    0.4108 H   0  0  0  0  0  0  0  0  0  0  0  0
   15.4537   -8.0026    0.2953 H   0  0  0  0  0  0  0  0  0  0  0  0
   14.3223   -9.1858    0.6458 H   0  0  0  0  0  0  0  0  0  0  0  0
    9.3144   -7.7392   -1.8885 H   0  0  0  0  0  0  0  0  0  0  0  0
   10.3227   -6.4243   -2.4355 H   0  0  0  0  0  0  0  0  0  0  0  0
    8.7513   -4.6360   -1.4896 H   0  0  0  0  0  0  0  0  0  0  0  0
    7.6211   -6.1069   -0.8764 H   0  0  0  0  0  0  0  0  0  0  0  0
  1  2  1  0  0  0  0
  1 25  1  0  0  0  0
  1 26  1  0  0  0  0
  1 27  1  0  0  0  0
  2  3  1  0  0  0  0
  2 24  1  0  0  0  0
  2 28  1  0  0  0  0
  3  4  1  0  0  0  0
  3 29  1  0  0  0  0
  3 30  1  0  0  0  0
  4  5  1  0  0  0  0
  4 31  1  0  0  0  0
  4 32  1  0  0  0  0
  5  6  1  0  0  0  0
  5 33  1  0  0  0  0
  5 34  1  0  0  0  0
  6  7  1  0  0  0  0
  6 35  1  0  0  0  0
  6 36  1  0  0  0  0
  7  8  1  0  0  0  0
  7 37  1  0  0  0  0
  7 38  1  0  0  0  0
  8  9  1  0  0  0  0
  8 39  1  0  0  0  0
  8 40  1  0  0  0  0
  9 10  1  0  0  0  0
  9 41  1  0  0  0  0
  9 42  1  0  0  0  0
 10 11  1  0  0  0  0
 10 43  1  0  0  0  0
 10 44  1  0  0  0  0
 11 12  1  0  0  0  0
 11 45  1  0  0  0  0
 11 46  1  0  0  0  0
 12 13  1  0  0  0  0
 12 47  1  0  0  0  0
 12 48  1  0  0  0  0
 13 14  1  0  0  0  0
 13 49  1  0  0  0  0
 13 50  1  0  0  0  0
 14 15  2  0  0  0  0
 14 16  1  0  0  0  0
 16 17  2  0  0  0  0
 16 22  1  0  0  0  0
 17 18  1  0  0  0  0
 17 23  1  0  0  0  0
 18 19  1  0  0  0  0
 18 51  1  0  0  0  0
 18 52  1  0  0  0  0
 19 20  1  0  0  0  0
 19 53  1  0  0  0  0
 19 54  1  0  0  0  0
 20 21  1  0  0  0  0
 20 55  1  0  0  0  0
 20 56  1  0  0  0  0
 21 22  1  0  0  0  0
 21 57  1  0  0  0  0
 21 58  1  0  0  0  0
 22 59  1  0  0  0  0
 22 60  1  0  0  0  0
 23 24  1  0  0  0  0
 23 61  1  0  0  0  0
 23 62  1  0  0  0  0
 24 63  1  0  0  0  0
 24 64  1  0  0  0  0
M  END
$$$$
