
 OpenBabel04232216523D

 50 50  0  0  0  0  0  0  0  0999 V2000
    9.9607    0.9886    1.5915 C   0  0  0  0  0  0  0  0  0  0  0  0
    8.8670    2.0339    1.7489 C   0  0  0  0  0  0  0  0  0  0  0  0
    7.4871    1.3792    1.8318 C   0  0  0  0  0  0  0  0  0  0  0  0
    6.3760    2.4173    1.9929 C   0  0  0  0  0  0  0  0  0  0  0  0
    4.9810    1.7822    2.0163 C   0  0  0  0  0  0  0  0  0  0  0  0
    4.6848    0.8090    3.1287 C   0  0  0  0  0  0  0  0  0  0  0  0
    4.3764   -0.5042    3.0118 C   0  0  0  0  0  0  0  0  0  0  0  0
    4.1656   -1.2993    1.7535 C   0  0  0  0  0  0  0  0  0  0  0  0
    4.4205   -2.8073    1.8732 C   0  0  0  0  0  0  0  0  0  0  0  0
    3.4780   -3.4782    2.8717 C   0  0  0  0  0  0  0  0  0  0  0  0
    3.6264   -4.9713    2.9045 C   0  0  0  0  0  0  0  0  0  0  0  0
    2.6013   -5.8071    2.6783 C   0  0  0  0  0  0  0  0  0  0  0  0
    2.6862   -7.2904    2.8076 C   0  0  0  0  0  0  0  0  0  0  0  0
    4.8120    1.3468    4.5635 C   0  0  0  0  0  0  0  0  0  0  0  0
    3.5475    1.9769    5.1654 C   0  0  0  0  0  0  0  0  0  0  0  0
    2.3760    1.0156    5.3226 C   0  0  0  0  0  0  0  0  0  0  0  0
    3.8161    2.6731    1.6122 C   0  0  0  0  0  0  0  0  0  0  0  0
    4.3189    1.6426    0.6558 C   0  0  0  0  0  0  0  0  0  0  0  0
   10.9484    1.4545    1.6625 H   0  0  0  0  0  0  0  0  0  0  0  0
    9.8876    0.4940    0.6176 H   0  0  0  0  0  0  0  0  0  0  0  0
    9.8895    0.2229    2.3706 H   0  0  0  0  0  0  0  0  0  0  0  0
    8.9068    2.7284    0.9018 H   0  0  0  0  0  0  0  0  0  0  0  0
    9.0552    2.6189    2.6571 H   0  0  0  0  0  0  0  0  0  0  0  0
    7.4703    0.6827    2.6783 H   0  0  0  0  0  0  0  0  0  0  0  0
    7.3072    0.7852    0.9280 H   0  0  0  0  0  0  0  0  0  0  0  0
    6.4392    3.1294    1.1598 H   0  0  0  0  0  0  0  0  0  0  0  0
    6.5360    3.0147    2.8976 H   0  0  0  0  0  0  0  0  0  0  0  0
    4.2063   -1.0478    3.9330 H   0  0  0  0  0  0  0  0  0  0  0  0
    4.8150   -0.9302    0.9547 H   0  0  0  0  0  0  0  0  0  0  0  0
    3.1221   -1.1585    1.4431 H   0  0  0  0  0  0  0  0  0  0  0  0
    5.4667   -2.9913    2.1451 H   0  0  0  0  0  0  0  0  0  0  0  0
    4.2693   -3.2527    0.8803 H   0  0  0  0  0  0  0  0  0  0  0  0
    2.4419   -3.2003    2.6387 H   0  0  0  0  0  0  0  0  0  0  0  0
    3.6808   -3.1181    3.8887 H   0  0  0  0  0  0  0  0  0  0  0  0
    4.6018   -5.3634    3.1829 H   0  0  0  0  0  0  0  0  0  0  0  0
    1.6261   -5.4075    2.4171 H   0  0  0  0  0  0  0  0  0  0  0  0
    3.6667   -7.6213    3.1607 H   0  0  0  0  0  0  0  0  0  0  0  0
    2.4870   -7.7652    1.8390 H   0  0  0  0  0  0  0  0  0  0  0  0
    1.9338   -7.6397    3.5214 H   0  0  0  0  0  0  0  0  0  0  0  0
    5.6156    2.0892    4.6123 H   0  0  0  0  0  0  0  0  0  0  0  0
    5.1484    0.5418    5.2329 H   0  0  0  0  0  0  0  0  0  0  0  0
    3.2334    2.8407    4.5705 H   0  0  0  0  0  0  0  0  0  0  0  0
    3.8014    2.3607    6.1623 H   0  0  0  0  0  0  0  0  0  0  0  0
    2.0184    0.6564    4.3542 H   0  0  0  0  0  0  0  0  0  0  0  0
    1.5391    1.5224    5.8158 H   0  0  0  0  0  0  0  0  0  0  0  0
    2.6508    0.1520    5.9366 H   0  0  0  0  0  0  0  0  0  0  0  0
    4.0015    3.7112    1.3708 H   0  0  0  0  0  0  0  0  0  0  0  0
    2.8330    2.4916    2.0363 H   0  0  0  0  0  0  0  0  0  0  0  0
    4.8800    1.9678   -0.2136 H   0  0  0  0  0  0  0  0  0  0  0  0
    3.6324    0.8415    0.4216 H   0  0  0  0  0  0  0  0  0  0  0  0
  1  2  1  0  0  0  0
  1 19  1  0  0  0  0
  1 20  1  0  0  0  0
  1 21  1  0  0  0  0
  2  3  1  0  0  0  0
  2 22  1  0  0  0  0
  2 23  1  0  0  0  0
  3  4  1  0  0  0  0
  3 24  1  0  0  0  0
  3 25  1  0  0  0  0
  4  5  1  0  0  0  0
  4 26  1  0  0  0  0
  4 27  1  0  0  0  0
  5  6  1  0  0  0  0
  5 17  1  0  0  0  0
  5 18  1  0  0  0  0
  6  7  2  3  0  0  0
  6 14  1  0  0  0  0
  7  8  1  0  0  0  0
  7 28  1  0  0  0  0
  8  9  1  0  0  0  0
  8 29  1  0  0  0  0
  8 30  1  0  0  0  0
  9 10  1  0  0  0  0
  9 31  1  0  0  0  0
  9 32  1  0  0  0  0
 10 11  1  0  0  0  0
 10 33  1  0  0  0  0
 10 34  1  0  0  0  0
 11 12  2  3  0  0  0
 11 35  1  0  0  0  0
 12 13  1  0  0  0  0
 12 36  1  0  0  0  0
 13 37  1  0  0  0  0
 13 38  1  0  0  0  0
 13 39  1  0  0  0  0
 14 15  1  0  0  0  0
 14 40  1  0  0  0  0
 14 41  1  0  0  0  0
 15 16  1  0  0  0  0
 15 42  1  0  0  0  0
 15 43  1  0  0  0  0
 16 44  1  0  0  0  0
 16 45  1  0  0  0  0
 16 46  1  0  0  0  0
 17 18  1  0  0  0  0
 17 47  1  0  0  0  0
 17 48  1  0  0  0  0
 18 49  1  0  0  0  0
 18 50  1  0  0  0  0
M  END
$$$$
