
 OpenBabel04232216593D

237236  0  0  0  0  0  0  0  0999 V2000
    2.7082   -0.5566    1.0258 O   0  0  0  0  0  0  0  0  0  0  0  0
    2.1749    0.1835    0.1945 C   0  0  0  0  0  0  0  0  0  0  0  0
    2.9462    1.0344   -0.7747 C   0  0  0  0  0  0  0  0  0  0  0  0
    4.4426    0.8522   -0.5797 C   0  0  0  0  0  0  0  0  0  0  0  0
    5.2144    1.7151   -1.5622 C   0  0  0  0  0  0  0  0  0  0  0  0
    6.7098    1.5312   -1.3653 C   0  0  0  0  0  0  0  0  0  0  0  0
    7.4756    2.3957   -2.3525 C   0  0  0  0  0  0  0  0  0  0  0  0
    8.9705    2.2148   -2.1559 C   0  0  0  0  0  0  0  0  0  0  0  0
    9.7383    3.0802   -3.1439 C   0  0  0  0  0  0  0  0  0  0  0  0
   11.2320    2.8941   -2.9376 C   0  0  0  0  0  0  0  0  0  0  0  0
   11.9597    3.7261   -3.8872 N   0  0  0  0  0  0  0  0  0  0  0  0
   13.3923    3.5466   -3.6895 C   0  0  0  0  0  0  0  0  0  0  0  0
   14.1515    4.4161   -4.6769 C   0  0  0  0  0  0  0  0  0  0  0  0
   15.6482    4.2345   -4.4767 C   0  0  0  0  0  0  0  0  0  0  0  0
   16.4152    5.1003   -5.4594 C   0  0  0  0  0  0  0  0  0  0  0  0
   17.9082    4.9163   -5.2591 C   0  0  0  0  0  0  0  0  0  0  0  0
   18.6720    5.7844   -6.2413 C   0  0  0  0  0  0  0  0  0  0  0  0
   20.1642    5.6019   -6.0398 C   0  0  0  0  0  0  0  0  0  0  0  0
   20.9270    6.4685   -7.0233 C   0  0  0  0  0  0  0  0  0  0  0  0
   22.4189    6.2844   -6.8230 C   0  0  0  0  0  0  0  0  0  0  0  0
   23.1816    7.1524   -7.8051 C   0  0  0  0  0  0  0  0  0  0  0  0
   24.6735    6.9667   -7.6060 C   0  0  0  0  0  0  0  0  0  0  0  0
   25.4361    7.8333   -8.5895 C   0  0  0  0  0  0  0  0  0  0  0  0
   26.9279    7.6491   -8.3891 C   0  0  0  0  0  0  0  0  0  0  0  0
   27.6905    8.5156   -9.3726 C   0  0  0  0  0  0  0  0  0  0  0  0
   29.1823    8.3329   -9.1708 C   0  0  0  0  0  0  0  0  0  0  0  0
   29.9449    9.1995  -10.1543 C   0  0  0  0  0  0  0  0  0  0  0  0
   31.4367    9.0168   -9.9525 C   0  0  0  0  0  0  0  0  0  0  0  0
   32.1993    9.8834  -10.9360 C   0  0  0  0  0  0  0  0  0  0  0  0
   33.6911    9.7007  -10.7343 C   0  0  0  0  0  0  0  0  0  0  0  0
   34.4537   10.5672  -11.7177 C   0  0  0  0  0  0  0  0  0  0  0  0
   35.9455   10.3845  -11.5160 C   0  0  0  0  0  0  0  0  0  0  0  0
   36.7081   11.2526  -12.4981 C   0  0  0  0  0  0  0  0  0  0  0  0
   38.1999   11.0699  -12.2964 C   0  0  0  0  0  0  0  0  0  0  0  0
   38.9625   11.9379  -13.2785 C   0  0  0  0  0  0  0  0  0  0  0  0
   40.4543   11.7552  -13.0768 C   0  0  0  0  0  0  0  0  0  0  0  0
   41.2169   12.6248  -14.0576 C   0  0  0  0  0  0  0  0  0  0  0  0
   42.7087   12.4436  -13.8545 C   0  0  0  0  0  0  0  0  0  0  0  0
   43.4713   13.3147  -14.8339 C   0  0  0  0  0  0  0  0  0  0  0  0
   44.9631   13.1350  -14.6295 C   0  0  0  0  0  0  0  0  0  0  0  0
   45.7257   14.0076  -15.6076 C   0  0  0  0  0  0  0  0  0  0  0  0
   47.2175   13.8264  -15.4045 C   0  0  0  0  0  0  0  0  0  0  0  0
   47.9801   14.6990  -16.3826 C   0  0  0  0  0  0  0  0  0  0  0  0
   49.4719   14.5178  -16.1795 C   0  0  0  0  0  0  0  0  0  0  0  0
   50.2345   15.3904  -17.1576 C   0  0  0  0  0  0  0  0  0  0  0  0
   51.7264   15.2093  -16.9545 C   0  0  0  0  0  0  0  0  0  0  0  0
   52.4889   16.0818  -17.9327 C   0  0  0  0  0  0  0  0  0  0  0  0
   53.9808   15.8992  -17.7309 C   0  0  0  0  0  0  0  0  0  0  0  0
   54.7433   16.7702  -18.7104 C   0  0  0  0  0  0  0  0  0  0  0  0
   56.2352   16.5890  -18.5073 C   0  0  0  0  0  0  0  0  0  0  0  0
   56.9977   17.4601  -19.4867 C   0  0  0  0  0  0  0  0  0  0  0  0
   58.4896   17.2804  -19.2823 C   0  0  0  0  0  0  0  0  0  0  0  0
   59.2521   18.1500  -20.2631 C   0  0  0  0  0  0  0  0  0  0  0  0
   60.7440   17.9719  -20.0573 C   0  0  0  0  0  0  0  0  0  0  0  0
   61.5065   18.8429  -21.0368 C   0  0  0  0  0  0  0  0  0  0  0  0
   62.9984   18.6663  -20.8297 C   0  0  0  0  0  0  0  0  0  0  0  0
   63.7609   19.5359  -21.8105 C   0  0  0  0  0  0  0  0  0  0  0  0
   65.2528   19.3592  -21.6034 C   0  0  0  0  0  0  0  0  0  0  0  0
   66.0153   20.2303  -22.5828 C   0  0  0  0  0  0  0  0  0  0  0  0
   67.5072   20.0536  -22.3757 C   0  0  0  0  0  0  0  0  0  0  0  0
   68.2697   20.9247  -23.3552 C   0  0  0  0  0  0  0  0  0  0  0  0
   69.7616   20.7481  -23.1481 C   0  0  0  0  0  0  0  0  0  0  0  0
   70.5241   21.6191  -24.1275 C   0  0  0  0  0  0  0  0  0  0  0  0
   72.0159   21.4425  -23.9204 C   0  0  0  0  0  0  0  0  0  0  0  0
   72.7785   22.3136  -24.8999 C   0  0  0  0  0  0  0  0  0  0  0  0
   74.2703   22.1369  -24.6928 C   0  0  0  0  0  0  0  0  0  0  0  0
   75.0329   23.0080  -25.6722 C   0  0  0  0  0  0  0  0  0  0  0  0
   76.5247   22.8313  -25.4651 C   0  0  0  0  0  0  0  0  0  0  0  0
   77.2873   23.7009  -26.4459 C   0  0  0  0  0  0  0  0  0  0  0  0
   78.7791   23.5243  -26.2388 C   0  0  0  0  0  0  0  0  0  0  0  0
   79.5417   24.3938  -27.2196 C   0  0  0  0  0  0  0  0  0  0  0  0
   81.0336   24.2172  -27.0125 C   0  0  0  0  0  0  0  0  0  0  0  0
   81.7962   25.0868  -27.9933 C   0  0  0  0  0  0  0  0  0  0  0  0
   83.2882   24.9102  -27.7864 C   0  0  0  0  0  0  0  0  0  0  0  0
   84.0512   25.7784  -28.7686 C   0  0  0  0  0  0  0  0  0  0  0  0
   85.5438   25.6023  -28.5621 C   0  0  0  0  0  0  0  0  0  0  0  0
   86.3079   26.4708  -29.5448 C   0  0  0  0  0  0  0  0  0  0  0  0
   87.8020   26.2946  -29.3412 C   0  0  0  0  0  0  0  0  0  0  0  0
   88.5738   27.1606  -30.3240 C   0  0  0  0  0  0  0  0  0  0  0  0
   90.0639   26.9827  -30.1185 C   0  0  0  0  0  0  0  0  0  0  0  0
    1.0790    0.2473    0.1340 H   0  0  0  0  0  0  0  0  0  0  0  0
    2.6663    2.0805   -0.6110 H   0  0  0  0  0  0  0  0  0  0  0  0
    2.6574    0.7460   -1.7911 H   0  0  0  0  0  0  0  0  0  0  0  0
    4.7137   -0.2031   -0.7170 H   0  0  0  0  0  0  0  0  0  0  0  0
    4.7224    1.1165    0.4488 H   0  0  0  0  0  0  0  0  0  0  0  0
    4.9487    2.7693   -1.4193 H   0  0  0  0  0  0  0  0  0  0  0  0
    4.9399    1.4453   -2.5890 H   0  0  0  0  0  0  0  0  0  0  0  0
    6.9784    0.4773   -1.5076 H   0  0  0  0  0  0  0  0  0  0  0  0
    6.9875    1.8031   -0.3395 H   0  0  0  0  0  0  0  0  0  0  0  0
    7.2068    3.4497   -2.2112 H   0  0  0  0  0  0  0  0  0  0  0  0
    7.1997    2.1230   -3.3784 H   0  0  0  0  0  0  0  0  0  0  0  0
    9.2385    1.1601   -2.2955 H   0  0  0  0  0  0  0  0  0  0  0  0
    9.2454    2.4867   -1.1291 H   0  0  0  0  0  0  0  0  0  0  0  0
    9.4640    4.1330   -3.0017 H   0  0  0  0  0  0  0  0  0  0  0  0
    9.4608    2.8046   -4.1692 H   0  0  0  0  0  0  0  0  0  0  0  0
   11.4907    1.8390   -3.0871 H   0  0  0  0  0  0  0  0  0  0  0  0
   11.4976    3.1690   -1.9095 H   0  0  0  0  0  0  0  0  0  0  0  0
   11.7119    4.7059   -3.7492 H   0  0  0  0  0  0  0  0  0  0  0  0
   13.6646    2.4960   -3.8465 H   0  0  0  0  0  0  0  0  0  0  0  0
   13.6728    3.8232   -2.6659 H   0  0  0  0  0  0  0  0  0  0  0  0
   13.8869    5.4715   -4.5352 H   0  0  0  0  0  0  0  0  0  0  0  0
   13.8814    4.1454   -5.7055 H   0  0  0  0  0  0  0  0  0  0  0  0
   15.9203    3.1812   -4.6190 H   0  0  0  0  0  0  0  0  0  0  0  0
   15.9240    4.5053   -3.4499 H   0  0  0  0  0  0  0  0  0  0  0  0
   16.1478    6.1543   -5.3157 H   0  0  0  0  0  0  0  0  0  0  0  0
   16.1417    4.8308   -6.4868 H   0  0  0  0  0  0  0  0  0  0  0  0
   18.1782    3.8631   -5.4046 H   0  0  0  0  0  0  0  0  0  0  0  0
   18.1838    5.1849   -4.2319 H   0  0  0  0  0  0  0  0  0  0  0  0
   18.4023    6.8379   -6.0972 H   0  0  0  0  0  0  0  0  0  0  0  0
   18.3987    5.5151   -7.2689 H   0  0  0  0  0  0  0  0  0  0  0  0
   20.4345    4.5484   -6.1828 H   0  0  0  0  0  0  0  0  0  0  0  0
   20.4385    5.8728   -5.0128 H   0  0  0  0  0  0  0  0  0  0  0  0
   20.6581    7.5222   -6.8794 H   0  0  0  0  0  0  0  0  0  0  0  0
   20.6521    6.1987   -8.0504 H   0  0  0  0  0  0  0  0  0  0  0  0
   22.6881    5.2310   -6.9683 H   0  0  0  0  0  0  0  0  0  0  0  0
   22.6939    6.5529   -5.7955 H   0  0  0  0  0  0  0  0  0  0  0  0
   22.9136    8.2060   -7.6588 H   0  0  0  0  0  0  0  0  0  0  0  0
   22.9058    6.8849   -8.8325 H   0  0  0  0  0  0  0  0  0  0  0  0
   24.9414    5.9130   -7.7509 H   0  0  0  0  0  0  0  0  0  0  0  0
   24.9496    7.2356   -6.5790 H   0  0  0  0  0  0  0  0  0  0  0  0
   25.1672    8.8870   -8.4456 H   0  0  0  0  0  0  0  0  0  0  0  0
   25.1610    7.5634   -9.6165 H   0  0  0  0  0  0  0  0  0  0  0  0
   27.1969    6.5954   -8.5330 H   0  0  0  0  0  0  0  0  0  0  0  0
   27.2029    7.9190   -7.3621 H   0  0  0  0  0  0  0  0  0  0  0  0
   27.4205    9.5692   -9.2296 H   0  0  0  0  0  0  0  0  0  0  0  0
   27.4165    8.2448  -10.3996 H   0  0  0  0  0  0  0  0  0  0  0  0
   29.4523    7.2794   -9.3138 H   0  0  0  0  0  0  0  0  0  0  0  0
   29.4563    8.6038   -8.1438 H   0  0  0  0  0  0  0  0  0  0  0  0
   29.6749   10.2530  -10.0114 H   0  0  0  0  0  0  0  0  0  0  0  0
   29.6709    8.9286  -11.1813 H   0  0  0  0  0  0  0  0  0  0  0  0
   31.7067    7.9633  -10.0955 H   0  0  0  0  0  0  0  0  0  0  0  0
   31.7107    9.2877   -8.9255 H   0  0  0  0  0  0  0  0  0  0  0  0
   31.9293   10.9369  -10.7931 H   0  0  0  0  0  0  0  0  0  0  0  0
   31.9253    9.6125  -11.9631 H   0  0  0  0  0  0  0  0  0  0  0  0
   33.9611    8.6471  -10.8772 H   0  0  0  0  0  0  0  0  0  0  0  0
   33.9651    9.9715   -9.7072 H   0  0  0  0  0  0  0  0  0  0  0  0
   34.1837   11.6207  -11.5748 H   0  0  0  0  0  0  0  0  0  0  0  0
   34.1797   10.2964  -12.7448 H   0  0  0  0  0  0  0  0  0  0  0  0
   36.2157    9.3312  -11.6603 H   0  0  0  0  0  0  0  0  0  0  0  0
   36.2193   10.6540  -10.4885 H   0  0  0  0  0  0  0  0  0  0  0  0
   36.4379   12.3058  -12.3538 H   0  0  0  0  0  0  0  0  0  0  0  0
   36.4343   10.9831  -13.5256 H   0  0  0  0  0  0  0  0  0  0  0  0
   38.4702   10.0166  -12.4407 H   0  0  0  0  0  0  0  0  0  0  0  0
   38.4736   11.3394  -11.2689 H   0  0  0  0  0  0  0  0  0  0  0  0
   38.6922   12.9912  -13.1341 H   0  0  0  0  0  0  0  0  0  0  0  0
   38.6888   11.6685  -14.3060 H   0  0  0  0  0  0  0  0  0  0  0  0
   40.7248   10.7022  -13.2225 H   0  0  0  0  0  0  0  0  0  0  0  0
   40.7278   12.0234  -12.0489 H   0  0  0  0  0  0  0  0  0  0  0  0
   40.9454   13.6777  -13.9127 H   0  0  0  0  0  0  0  0  0  0  0  0
   40.9444   12.3558  -15.0855 H   0  0  0  0  0  0  0  0  0  0  0  0
   42.9805   11.3910  -14.0007 H   0  0  0  0  0  0  0  0  0  0  0  0
   42.9809   12.7114  -12.8261 H   0  0  0  0  0  0  0  0  0  0  0  0
   43.1985   14.3672  -14.6886 H   0  0  0  0  0  0  0  0  0  0  0  0
   43.2002   13.0461  -15.8623 H   0  0  0  0  0  0  0  0  0  0  0  0
   45.2361   12.0828  -14.7761 H   0  0  0  0  0  0  0  0  0  0  0  0
   45.2341   13.4024  -13.6007 H   0  0  0  0  0  0  0  0  0  0  0  0
   45.4537   15.0600  -15.4599 H   0  0  0  0  0  0  0  0  0  0  0  0
   45.4537   13.7413  -16.6363 H   0  0  0  0  0  0  0  0  0  0  0  0
   47.4895   12.7741  -15.5521 H   0  0  0  0  0  0  0  0  0  0  0  0
   47.4895   14.0928  -14.3757 H   0  0  0  0  0  0  0  0  0  0  0  0
   47.7081   15.7514  -16.2350 H   0  0  0  0  0  0  0  0  0  0  0  0
   47.7081   14.4327  -17.4114 H   0  0  0  0  0  0  0  0  0  0  0  0
   49.7439   13.4655  -16.3272 H   0  0  0  0  0  0  0  0  0  0  0  0
   49.7439   14.7842  -15.1508 H   0  0  0  0  0  0  0  0  0  0  0  0
   49.9625   16.4428  -17.0100 H   0  0  0  0  0  0  0  0  0  0  0  0
   49.9625   15.1241  -18.1864 H   0  0  0  0  0  0  0  0  0  0  0  0
   51.9983   14.1569  -17.1022 H   0  0  0  0  0  0  0  0  0  0  0  0
   51.9984   15.4756  -15.9258 H   0  0  0  0  0  0  0  0  0  0  0  0
   52.2180   17.1343  -17.7840 H   0  0  0  0  0  0  0  0  0  0  0  0
   52.2159   15.8165  -18.9614 H   0  0  0  0  0  0  0  0  0  0  0  0
   54.2515   14.8464  -17.8781 H   0  0  0  0  0  0  0  0  0  0  0  0
   54.2540   16.1659  -16.7026 H   0  0  0  0  0  0  0  0  0  0  0  0
   54.4716   17.8228  -18.5641 H   0  0  0  0  0  0  0  0  0  0  0  0
   54.4711   16.5025  -19.7387 H   0  0  0  0  0  0  0  0  0  0  0  0
   56.5069   15.5364  -18.6535 H   0  0  0  0  0  0  0  0  0  0  0  0
   56.5074   16.8568  -17.4789 H   0  0  0  0  0  0  0  0  0  0  0  0
   56.7249   18.5126  -19.3415 H   0  0  0  0  0  0  0  0  0  0  0  0
   56.7266   17.1914  -20.5151 H   0  0  0  0  0  0  0  0  0  0  0  0
   58.7622   16.2277  -19.4262 H   0  0  0  0  0  0  0  0  0  0  0  0
   58.7609   17.5505  -18.2544 H   0  0  0  0  0  0  0  0  0  0  0  0
   58.9784   19.2026  -20.1202 H   0  0  0  0  0  0  0  0  0  0  0  0
   58.9819   17.8790  -21.2911 H   0  0  0  0  0  0  0  0  0  0  0  0
   61.0179   16.9195  -20.2016 H   0  0  0  0  0  0  0  0  0  0  0  0
   61.0140   18.2415  -19.0289 H   0  0  0  0  0  0  0  0  0  0  0  0
   61.2316   19.8951  -20.8935 H   0  0  0  0  0  0  0  0  0  0  0  0
   61.2375   18.5723  -22.0652 H   0  0  0  0  0  0  0  0  0  0  0  0
   63.2732   17.6139  -20.9716 H   0  0  0  0  0  0  0  0  0  0  0  0
   63.2675   18.9383  -19.8017 H   0  0  0  0  0  0  0  0  0  0  0  0
   63.4861   20.5883  -21.6686 H   0  0  0  0  0  0  0  0  0  0  0  0
   63.4918   19.2639  -22.8385 H   0  0  0  0  0  0  0  0  0  0  0  0
   65.5277   18.3070  -21.7467 H   0  0  0  0  0  0  0  0  0  0  0  0
   65.5218   19.6299  -20.5750 H   0  0  0  0  0  0  0  0  0  0  0  0
   65.7403   21.2824  -22.4395 H   0  0  0  0  0  0  0  0  0  0  0  0
   65.7464   19.9596  -23.6112 H   0  0  0  0  0  0  0  0  0  0  0  0
   67.7822   19.0015  -22.5190 H   0  0  0  0  0  0  0  0  0  0  0  0
   67.7761   20.3243  -21.3473 H   0  0  0  0  0  0  0  0  0  0  0  0
   67.9947   21.9769  -23.2119 H   0  0  0  0  0  0  0  0  0  0  0  0
   68.0008   20.6541  -24.3836 H   0  0  0  0  0  0  0  0  0  0  0  0
   70.0366   19.6959  -23.2914 H   0  0  0  0  0  0  0  0  0  0  0  0
   70.0305   21.0187  -22.1197 H   0  0  0  0  0  0  0  0  0  0  0  0
   70.2491   22.6713  -23.9842 H   0  0  0  0  0  0  0  0  0  0  0  0
   70.2552   21.3485  -25.1559 H   0  0  0  0  0  0  0  0  0  0  0  0
   72.2909   20.3903  -24.0638 H   0  0  0  0  0  0  0  0  0  0  0  0
   72.2849   21.7131  -22.8920 H   0  0  0  0  0  0  0  0  0  0  0  0
   72.5035   23.3657  -24.7566 H   0  0  0  0  0  0  0  0  0  0  0  0
   72.5095   22.0429  -25.9283 H   0  0  0  0  0  0  0  0  0  0  0  0
   74.5453   21.0848  -24.8361 H   0  0  0  0  0  0  0  0  0  0  0  0
   74.5393   22.4076  -23.6644 H   0  0  0  0  0  0  0  0  0  0  0  0
   74.7579   24.0602  -25.5289 H   0  0  0  0  0  0  0  0  0  0  0  0
   74.7639   22.7373  -26.7006 H   0  0  0  0  0  0  0  0  0  0  0  0
   76.7995   21.7789  -25.6071 H   0  0  0  0  0  0  0  0  0  0  0  0
   76.7939   23.1033  -24.4371 H   0  0  0  0  0  0  0  0  0  0  0  0
   77.0125   24.7533  -26.3040 H   0  0  0  0  0  0  0  0  0  0  0  0
   77.0181   23.4289  -27.4739 H   0  0  0  0  0  0  0  0  0  0  0  0
   79.0539   22.4718  -26.3807 H   0  0  0  0  0  0  0  0  0  0  0  0
   79.0483   23.7963  -25.2108 H   0  0  0  0  0  0  0  0  0  0  0  0
   79.2669   25.4463  -27.0777 H   0  0  0  0  0  0  0  0  0  0  0  0
   79.2725   24.1218  -28.2476 H   0  0  0  0  0  0  0  0  0  0  0  0
   81.3083   23.1648  -27.1544 H   0  0  0  0  0  0  0  0  0  0  0  0
   81.3027   24.4892  -25.9845 H   0  0  0  0  0  0  0  0  0  0  0  0
   81.5214   26.1392  -27.8514 H   0  0  0  0  0  0  0  0  0  0  0  0
   81.5269   24.8147  -29.0213 H   0  0  0  0  0  0  0  0  0  0  0  0
   83.5626   23.8575  -27.9268 H   0  0  0  0  0  0  0  0  0  0  0  0
   83.5574   25.1836  -26.7587 H   0  0  0  0  0  0  0  0  0  0  0  0
   83.7762   26.8310  -28.6280 H   0  0  0  0  0  0  0  0  0  0  0  0
   83.7813   25.5049  -29.7960 H   0  0  0  0  0  0  0  0  0  0  0  0
   85.8175   24.5493  -28.7021 H   0  0  0  0  0  0  0  0  0  0  0  0
   85.8125   25.8752  -27.5341 H   0  0  0  0  0  0  0  0  0  0  0  0
   86.0326   27.5232  -29.4027 H   0  0  0  0  0  0  0  0  0  0  0  0
   86.0356   26.1978  -30.5718 H   0  0  0  0  0  0  0  0  0  0  0  0
   88.0724   25.2402  -29.4791 H   0  0  0  0  0  0  0  0  0  0  0  0
   88.0698   26.5664  -28.3125 H   0  0  0  0  0  0  0  0  0  0  0  0
   88.3043   28.2141  -30.1845 H   0  0  0  0  0  0  0  0  0  0  0  0
   88.3068   26.8873  -31.3516 H   0  0  0  0  0  0  0  0  0  0  0  0
   90.3488   27.2702  -29.1012 H   0  0  0  0  0  0  0  0  0  0  0  0
   90.6208   27.6042  -30.8239 H   0  0  0  0  0  0  0  0  0  0  0  0
   90.3513   25.9376  -30.2735 H   0  0  0  0  0  0  0  0  0  0  0  0
  1  2  2  0  0  0  0
  2  3  1  0  0  0  0
  2 81  1  0  0  0  0
  3  4  1  0  0  0  0
  3 82  1  0  0  0  0
  3 83  1  0  0  0  0
  4  5  1  0  0  0  0
  4 84  1  0  0  0  0
  4 85  1  0  0  0  0
  5  6  1  0  0  0  0
  5 86  1  0  0  0  0
  5 87  1  0  0  0  0
  6  7  1  0  0  0  0
  6 88  1  0  0  0  0
  6 89  1  0  0  0  0
  7  8  1  0  0  0  0
  7 90  1  0  0  0  0
  7 91  1  0  0  0  0
  8  9  1  0  0  0  0
  8 92  1  0  0  0  0
  8 93  1  0  0  0  0
  9 10  1  0  0  0  0
  9 94  1  0  0  0  0
  9 95  1  0  0  0  0
 10 11  1  0  0  0  0
 10 96  1  0  0  0  0
 10 97  1  0  0  0  0
 11 12  1  0  0  0  0
 11 98  1  0  0  0  0
 12 13  1  0  0  0  0
 12 99  1  0  0  0  0
 12100  1  0  0  0  0
 13 14  1  0  0  0  0
 13101  1  0  0  0  0
 13102  1  0  0  0  0
 14 15  1  0  0  0  0
 14103  1  0  0  0  0
 14104  1  0  0  0  0
 15 16  1  0  0  0  0
 15105  1  0  0  0  0
 15106  1  0  0  0  0
 16 17  1  0  0  0  0
 16107  1  0  0  0  0
 16108  1  0  0  0  0
 17 18  1  0  0  0  0
 17109  1  0  0  0  0
 17110  1  0  0  0  0
 18 19  1  0  0  0  0
 18111  1  0  0  0  0
 18112  1  0  0  0  0
 19 20  1  0  0  0  0
 19113  1  0  0  0  0
 19114  1  0  0  0  0
 20 21  1  0  0  0  0
 20115  1  0  0  0  0
 20116  1  0  0  0  0
 21 22  1  0  0  0  0
 21117  1  0  0  0  0
 21118  1  0  0  0  0
 22 23  1  0  0  0  0
 22119  1  0  0  0  0
 22120  1  0  0  0  0
 23 24  1  0  0  0  0
 23121  1  0  0  0  0
 23122  1  0  0  0  0
 24 25  1  0  0  0  0
 24123  1  0  0  0  0
 24124  1  0  0  0  0
 25 26  1  0  0  0  0
 25125  1  0  0  0  0
 25126  1  0  0  0  0
 26 27  1  0  0  0  0
 26127  1  0  0  0  0
 26128  1  0  0  0  0
 27 28  1  0  0  0  0
 27129  1  0  0  0  0
 27130  1  0  0  0  0
 28 29  1  0  0  0  0
 28131  1  0  0  0  0
 28132  1  0  0  0  0
 29 30  1  0  0  0  0
 29133  1  0  0  0  0
 29134  1  0  0  0  0
 30 31  1  0  0  0  0
 30135  1  0  0  0  0
 30136  1  0  0  0  0
 31 32  1  0  0  0  0
 31137  1  0  0  0  0
 31138  1  0  0  0  0
 32 33  1  0  0  0  0
 32139  1  0  0  0  0
 32140  1  0  0  0  0
 33 34  1  0  0  0  0
 33141  1  0  0  0  0
 33142  1  0  0  0  0
 34 35  1  0  0  0  0
 34143  1  0  0  0  0
 34144  1  0  0  0  0
 35 36  1  0  0  0  0
 35145  1  0  0  0  0
 35146  1  0  0  0  0
 36 37  1  0  0  0  0
 36147  1  0  0  0  0
 36148  1  0  0  0  0
 37 38  1  0  0  0  0
 37149  1  0  0  0  0
 37150  1  0  0  0  0
 38 39  1  0  0  0  0
 38151  1  0  0  0  0
 38152  1  0  0  0  0
 39 40  1  0  0  0  0
 39153  1  0  0  0  0
 39154  1  0  0  0  0
 40 41  1  0  0  0  0
 40155  1  0  0  0  0
 40156  1  0  0  0  0
 41 42  1  0  0  0  0
 41157  1  0  0  0  0
 41158  1  0  0  0  0
 42 43  1  0  0  0  0
 42159  1  0  0  0  0
 42160  1  0  0  0  0
 43 44  1  0  0  0  0
 43161  1  0  0  0  0
 43162  1  0  0  0  0
 44 45  1  0  0  0  0
 44163  1  0  0  0  0
 44164  1  0  0  0  0
 45 46  1  0  0  0  0
 45165  1  0  0  0  0
 45166  1  0  0  0  0
 46 47  1  0  0  0  0
 46167  1  0  0  0  0
 46168  1  0  0  0  0
 47 48  1  0  0  0  0
 47169  1  0  0  0  0
 47170  1  0  0  0  0
 48 49  1  0  0  0  0
 48171  1  0  0  0  0
 48172  1  0  0  0  0
 49 50  1  0  0  0  0
 49173  1  0  0  0  0
 49174  1  0  0  0  0
 50 51  1  0  0  0  0
 50175  1  0  0  0  0
 50176  1  0  0  0  0
 51 52  1  0  0  0  0
 51177  1  0  0  0  0
 51178  1  0  0  0  0
 52 53  1  0  0  0  0
 52179  1  0  0  0  0
 52180  1  0  0  0  0
 53 54  1  0  0  0  0
 53181  1  0  0  0  0
 53182  1  0  0  0  0
 54 55  1  0  0  0  0
 54183  1  0  0  0  0
 54184  1  0  0  0  0
 55 56  1  0  0  0  0
 55185  1  0  0  0  0
 55186  1  0  0  0  0
 56 57  1  0  0  0  0
 56187  1  0  0  0  0
 56188  1  0  0  0  0
 57 58  1  0  0  0  0
 57189  1  0  0  0  0
 57190  1  0  0  0  0
 58 59  1  0  0  0  0
 58191  1  0  0  0  0
 58192  1  0  0  0  0
 59 60  1  0  0  0  0
 59193  1  0  0  0  0
 59194  1  0  0  0  0
 60 61  1  0  0  0  0
 60195  1  0  0  0  0
 60196  1  0  0  0  0
 61 62  1  0  0  0  0
 61197  1  0  0  0  0
 61198  1  0  0  0  0
 62 63  1  0  0  0  0
 62199  1  0  0  0  0
 62200  1  0  0  0  0
 63 64  1  0  0  0  0
 63201  1  0  0  0  0
 63202  1  0  0  0  0
 64 65  1  0  0  0  0
 64203  1  0  0  0  0
 64204  1  0  0  0  0
 65 66  1  0  0  0  0
 65205  1  0  0  0  0
 65206  1  0  0  0  0
 66 67  1  0  0  0  0
 66207  1  0  0  0  0
 66208  1  0  0  0  0
 67 68  1  0  0  0  0
 67209  1  0  0  0  0
 67210  1  0  0  0  0
 68 69  1  0  0  0  0
 68211  1  0  0  0  0
 68212  1  0  0  0  0
 69 70  1  0  0  0  0
 69213  1  0  0  0  0
 69214  1  0  0  0  0
 70 71  1  0  0  0  0
 70215  1  0  0  0  0
 70216  1  0  0  0  0
 71 72  1  0  0  0  0
 71217  1  0  0  0  0
 71218  1  0  0  0  0
 72 73  1  0  0  0  0
 72219  1  0  0  0  0
 72220  1  0  0  0  0
 73 74  1  0  0  0  0
 73221  1  0  0  0  0
 73222  1  0  0  0  0
 74 75  1  0  0  0  0
 74223  1  0  0  0  0
 74224  1  0  0  0  0
 75 76  1  0  0  0  0
 75225  1  0  0  0  0
 75226  1  0  0  0  0
 76 77  1  0  0  0  0
 76227  1  0  0  0  0
 76228  1  0  0  0  0
 77 78  1  0  0  0  0
 77229  1  0  0  0  0
 77230  1  0  0  0  0
 78 79  1  0  0  0  0
 78231  1  0  0  0  0
 78232  1  0  0  0  0
 79 80  1  0  0  0  0
 79233  1  0  0  0  0
 79234  1  0  0  0  0
 80235  1  0  0  0  0
 80236  1  0  0  0  0
 80237  1  0  0  0  0
M  END
$$$$
