
 OpenBabel04232216533D

243242  0  0  0  0  0  0  0  0999 V2000
    1.0320   -0.0818    0.1633 C   0  0  0  0  0  0  0  0  0  0  0  0
    2.5488   -0.0762    0.1714 C   0  0  0  0  0  0  0  0  0  0  0  0
    3.0741    0.9569    1.1628 C   0  0  0  0  0  0  0  0  0  0  0  0
    4.5957    0.9672    1.1738 C   0  0  0  0  0  0  0  0  0  0  0  0
    5.1227    1.9980    2.1621 C   0  0  0  0  0  0  0  0  0  0  0  0
    6.6370    1.9871    2.1512 C   0  0  0  0  0  0  0  0  0  0  0  0
    7.1118    2.9552    3.0777 O   0  0  0  0  0  0  0  0  0  0  0  0
    8.5330    2.9556    3.0799 C   0  0  0  0  0  0  0  0  0  0  0  0
    9.0207    3.9906    4.0697 C   0  0  0  0  0  0  0  0  0  0  0  0
   10.5402    4.0024    4.0777 C   0  0  0  0  0  0  0  0  0  0  0  0
   11.0532    5.0322    5.0691 C   0  0  0  0  0  0  0  0  0  0  0  0
   12.5727    5.0321    5.0723 C   0  0  0  0  0  0  0  0  0  0  0  0
   13.0861    6.0610    6.0621 C   0  0  0  0  0  0  0  0  0  0  0  0
   14.6035    6.0621    6.0682 C   0  0  0  0  0  0  0  0  0  0  0  0
   15.1139    7.0918    7.0589 C   0  0  0  0  0  0  0  0  0  0  0  0
   16.6308    7.0941    7.0644 C   0  0  0  0  0  0  0  0  0  0  0  0
   17.1414    8.1217    8.0562 C   0  0  0  0  0  0  0  0  0  0  0  0
   18.6580    8.1230    8.0624 C   0  0  0  0  0  0  0  0  0  0  0  0
   19.1681    9.1495    9.0556 C   0  0  0  0  0  0  0  0  0  0  0  0
   20.6848    9.1515    9.0605 C   0  0  0  0  0  0  0  0  0  0  0  0
   21.1949   10.1768   10.0549 C   0  0  0  0  0  0  0  0  0  0  0  0
   22.7116   10.1802   10.0582 C   0  0  0  0  0  0  0  0  0  0  0  0
   23.2217   11.2066   11.0513 C   0  0  0  0  0  0  0  0  0  0  0  0
   24.7383   11.2114   11.0535 C   0  0  0  0  0  0  0  0  0  0  0  0
   25.2482   12.2383   12.0466 C   0  0  0  0  0  0  0  0  0  0  0  0
   26.7649   12.2417   12.0493 C   0  0  0  0  0  0  0  0  0  0  0  0
   27.2745   13.2682   13.0430 C   0  0  0  0  0  0  0  0  0  0  0  0
   28.7914   13.2714   13.0462 C   0  0  0  0  0  0  0  0  0  0  0  0
   29.3016   14.2978   14.0394 C   0  0  0  0  0  0  0  0  0  0  0  0
   30.8182   14.3011   14.0428 C   0  0  0  0  0  0  0  0  0  0  0  0
   31.3281   15.3275   15.0361 C   0  0  0  0  0  0  0  0  0  0  0  0
   32.8448   15.3312   15.0389 C   0  0  0  0  0  0  0  0  0  0  0  0
   33.3548   16.3578   16.0322 C   0  0  0  0  0  0  0  0  0  0  0  0
   34.8715   16.3625   16.0343 C   0  0  0  0  0  0  0  0  0  0  0  0
   35.3814   17.3888   17.0276 C   0  0  0  0  0  0  0  0  0  0  0  0
   36.8981   17.3926   17.0305 C   0  0  0  0  0  0  0  0  0  0  0  0
   37.4082   18.4178   18.0250 C   0  0  0  0  0  0  0  0  0  0  0  0
   38.9248   18.4224   18.0272 C   0  0  0  0  0  0  0  0  0  0  0  0
   39.4347   19.4461   19.0232 C   0  0  0  0  0  0  0  0  0  0  0  0
   40.9513   19.4497   19.0263 C   0  0  0  0  0  0  0  0  0  0  0  0
   41.4615   20.4720   20.0237 C   0  0  0  0  0  0  0  0  0  0  0  0
   42.9782   20.4754   20.0271 C   0  0  0  0  0  0  0  0  0  0  0  0
   43.4881   21.4976   21.0245 C   0  0  0  0  0  0  0  0  0  0  0  0
   45.0047   21.5011   21.0280 C   0  0  0  0  0  0  0  0  0  0  0  0
   45.5148   22.5233   22.0256 C   0  0  0  0  0  0  0  0  0  0  0  0
   47.0314   22.5267   22.0290 C   0  0  0  0  0  0  0  0  0  0  0  0
   47.5415   23.5490   23.0264 C   0  0  0  0  0  0  0  0  0  0  0  0
   49.0582   23.5526   23.0295 C   0  0  0  0  0  0  0  0  0  0  0  0
   49.5681   24.5748   24.0270 C   0  0  0  0  0  0  0  0  0  0  0  0
   51.0847   24.5794   24.0292 C   0  0  0  0  0  0  0  0  0  0  0  0
   51.5948   25.6018   25.0266 C   0  0  0  0  0  0  0  0  0  0  0  0
   53.1115   25.6053   25.0297 C   0  0  0  0  0  0  0  0  0  0  0  0
   53.6214   26.6290   26.0257 C   0  0  0  0  0  0  0  0  0  0  0  0
   55.1380   26.6339   26.0276 C   0  0  0  0  0  0  0  0  0  0  0  0
   55.6481   27.6589   27.0223 C   0  0  0  0  0  0  0  0  0  0  0  0
   57.1647   27.6650   27.0229 C   0  0  0  0  0  0  0  0  0  0  0  0
   57.6748   28.6888   28.0189 C   0  0  0  0  0  0  0  0  0  0  0  0
   59.1914   28.6938   28.0205 C   0  0  0  0  0  0  0  0  0  0  0  0
   59.7013   29.7174   29.0167 C   0  0  0  0  0  0  0  0  0  0  0  0
   61.2180   29.7236   29.0173 C   0  0  0  0  0  0  0  0  0  0  0  0
   61.7281   30.7473   30.0132 C   0  0  0  0  0  0  0  0  0  0  0  0
   63.2446   30.7536   30.0136 C   0  0  0  0  0  0  0  0  0  0  0  0
   63.7548   31.7774   31.0096 C   0  0  0  0  0  0  0  0  0  0  0  0
   65.2713   31.7836   31.0100 C   0  0  0  0  0  0  0  0  0  0  0  0
   65.7814   32.8074   32.0060 C   0  0  0  0  0  0  0  0  0  0  0  0
   67.2980   32.8137   32.0064 C   0  0  0  0  0  0  0  0  0  0  0  0
   67.8080   33.8373   33.0024 C   0  0  0  0  0  0  0  0  0  0  0  0
   69.3246   33.8434   33.0028 C   0  0  0  0  0  0  0  0  0  0  0  0
   69.8348   34.8670   33.9988 C   0  0  0  0  0  0  0  0  0  0  0  0
   71.3515   34.8721   34.0008 C   0  0  0  0  0  0  0  0  0  0  0  0
   71.8615   35.8958   34.9970 C   0  0  0  0  0  0  0  0  0  0  0  0
   73.3784   35.9006   34.9989 C   0  0  0  0  0  0  0  0  0  0  0  0
   73.8888   36.9246   35.9952 C   0  0  0  0  0  0  0  0  0  0  0  0
   75.4059   36.9300   35.9975 C   0  0  0  0  0  0  0  0  0  0  0  0
   75.9171   37.9539   36.9937 C   0  0  0  0  0  0  0  0  0  0  0  0
   77.4350   37.9608   36.9948 C   0  0  0  0  0  0  0  0  0  0  0  0
   77.9493   38.9847   37.9911 C   0  0  0  0  0  0  0  0  0  0  0  0
   79.4692   38.9935   37.9942 C   0  0  0  0  0  0  0  0  0  0  0  0
   79.9855   40.0170   38.9925 C   0  0  0  0  0  0  0  0  0  0  0  0
   81.5076   40.0339   39.0062 C   0  0  0  0  0  0  0  0  0  0  0  0
   82.0198   41.0557   40.0032 C   0  0  0  0  0  0  0  0  0  0  0  0
    0.6573   -0.8226   -0.5475 H   0  0  0  0  0  0  0  0  0  0  0  0
    0.6431    0.8999   -0.1257 H   0  0  0  0  0  0  0  0  0  0  0  0
    0.6406   -0.3279    1.1554 H   0  0  0  0  0  0  0  0  0  0  0  0
    2.9216    0.1489   -0.8350 H   0  0  0  0  0  0  0  0  0  0  0  0
    2.9193   -1.0727    0.4395 H   0  0  0  0  0  0  0  0  0  0  0  0
    2.7013    0.7305    2.1690 H   0  0  0  0  0  0  0  0  0  0  0  0
    2.7022    1.9530    0.8944 H   0  0  0  0  0  0  0  0  0  0  0  0
    4.9721    1.1938    0.1696 H   0  0  0  0  0  0  0  0  0  0  0  0
    4.9723   -0.0275    1.4423 H   0  0  0  0  0  0  0  0  0  0  0  0
    4.7565    1.7879    3.1751 H   0  0  0  0  0  0  0  0  0  0  0  0
    4.7573    3.0016    1.9092 H   0  0  0  0  0  0  0  0  0  0  0  0
    7.0075    2.2298    1.1483 H   0  0  0  0  0  0  0  0  0  0  0  0
    7.0075    0.9958    2.4376 H   0  0  0  0  0  0  0  0  0  0  0  0
    8.9004    3.1953    2.0751 H   0  0  0  0  0  0  0  0  0  0  0  0
    8.8986    1.9621    3.3654 H   0  0  0  0  0  0  0  0  0  0  0  0
    8.6275    3.7668    5.0694 H   0  0  0  0  0  0  0  0  0  0  0  0
    8.6276    4.9793    3.8020 H   0  0  0  0  0  0  0  0  0  0  0  0
   10.9128    4.2322    3.0775 H   0  0  0  0  0  0  0  0  0  0  0  0
   10.9178    3.0086    4.3504 H   0  0  0  0  0  0  0  0  0  0  0  0
   10.6793    4.8051    6.0746 H   0  0  0  0  0  0  0  0  0  0  0  0
   10.6818    6.0277    4.7992 H   0  0  0  0  0  0  0  0  0  0  0  0
   12.9501    5.2599    4.0676 H   0  0  0  0  0  0  0  0  0  0  0  0
   12.9475    4.0365    5.3407 H   0  0  0  0  0  0  0  0  0  0  0  0
   12.7086    5.8334    7.0666 H   0  0  0  0  0  0  0  0  0  0  0  0
   12.7126    7.0567    5.7924 H   0  0  0  0  0  0  0  0  0  0  0  0
   14.9814    6.2900    5.0642 H   0  0  0  0  0  0  0  0  0  0  0  0
   14.9770    5.0669    6.3381 H   0  0  0  0  0  0  0  0  0  0  0  0
   14.7369    6.8635    8.0636 H   0  0  0  0  0  0  0  0  0  0  0  0
   14.7397    8.0874    6.7904 H   0  0  0  0  0  0  0  0  0  0  0  0
   17.0083    7.3240    6.0602 H   0  0  0  0  0  0  0  0  0  0  0  0
   17.0056    6.0984    7.3319 H   0  0  0  0  0  0  0  0  0  0  0  0
   16.7632    7.8933    9.0602 H   0  0  0  0  0  0  0  0  0  0  0  0
   16.7678    9.1182    7.7880 H   0  0  0  0  0  0  0  0  0  0  0  0
   19.0360    8.3534    7.0587 H   0  0  0  0  0  0  0  0  0  0  0  0
   19.0316    7.1267    8.3292 H   0  0  0  0  0  0  0  0  0  0  0  0
   18.7911    8.9183   10.0594 H   0  0  0  0  0  0  0  0  0  0  0  0
   18.7937   10.1457    8.7897 H   0  0  0  0  0  0  0  0  0  0  0  0
   21.0617    9.3840    8.0568 H   0  0  0  0  0  0  0  0  0  0  0  0
   21.0595    8.1550    9.3251 H   0  0  0  0  0  0  0  0  0  0  0  0
   20.8191    9.9435   11.0588 H   0  0  0  0  0  0  0  0  0  0  0  0
   20.8191   11.1730    9.7910 H   0  0  0  0  0  0  0  0  0  0  0  0
   23.0875   10.4124    9.0541 H   0  0  0  0  0  0  0  0  0  0  0  0
   23.0874    9.1842   10.3232 H   0  0  0  0  0  0  0  0  0  0  0  0
   22.8469   10.9739   12.0556 H   0  0  0  0  0  0  0  0  0  0  0  0
   22.8451   12.2024   10.7870 H   0  0  0  0  0  0  0  0  0  0  0  0
   25.1130   11.4442   10.0491 H   0  0  0  0  0  0  0  0  0  0  0  0
   25.1151   10.2157   11.3180 H   0  0  0  0  0  0  0  0  0  0  0  0
   24.8725   12.0059   13.0508 H   0  0  0  0  0  0  0  0  0  0  0  0
   24.8722   13.2339   11.7816 H   0  0  0  0  0  0  0  0  0  0  0  0
   27.1410   12.4731   11.0455 H   0  0  0  0  0  0  0  0  0  0  0  0
   27.1405   11.2460   12.3154 H   0  0  0  0  0  0  0  0  0  0  0  0
   26.8989   13.0359   14.0470 H   0  0  0  0  0  0  0  0  0  0  0  0
   26.8990   14.2640   12.7777 H   0  0  0  0  0  0  0  0  0  0  0  0
   29.1671   13.5035   12.0421 H   0  0  0  0  0  0  0  0  0  0  0  0
   29.1671   12.2754   13.3114 H   0  0  0  0  0  0  0  0  0  0  0  0
   28.9259   14.0657   15.0435 H   0  0  0  0  0  0  0  0  0  0  0  0
   28.9259   15.2938   13.7742 H   0  0  0  0  0  0  0  0  0  0  0  0
   31.1941   14.5333   13.0387 H   0  0  0  0  0  0  0  0  0  0  0  0
   31.1940   13.3053   14.3083 H   0  0  0  0  0  0  0  0  0  0  0  0
   30.9525   15.0957   16.0401 H   0  0  0  0  0  0  0  0  0  0  0  0
   30.9523   16.3233   14.7705 H   0  0  0  0  0  0  0  0  0  0  0  0
   33.2205   15.5634   14.0348 H   0  0  0  0  0  0  0  0  0  0  0  0
   33.2208   14.3354   15.3041 H   0  0  0  0  0  0  0  0  0  0  0  0
   32.9800   16.1250   17.0365 H   0  0  0  0  0  0  0  0  0  0  0  0
   32.9779   17.3536   15.7679 H   0  0  0  0  0  0  0  0  0  0  0  0
   35.2463   16.5954   15.0299 H   0  0  0  0  0  0  0  0  0  0  0  0
   35.2482   15.3667   16.2986 H   0  0  0  0  0  0  0  0  0  0  0  0
   35.0060   17.1565   18.0317 H   0  0  0  0  0  0  0  0  0  0  0  0
   35.0055   18.3847   16.7627 H   0  0  0  0  0  0  0  0  0  0  0  0
   37.2737   17.6260   16.0265 H   0  0  0  0  0  0  0  0  0  0  0  0
   37.2741   16.3964   17.2942 H   0  0  0  0  0  0  0  0  0  0  0  0
   37.0334   18.1835   19.0291 H   0  0  0  0  0  0  0  0  0  0  0  0
   37.0314   19.4140   17.7622 H   0  0  0  0  0  0  0  0  0  0  0  0
   39.2997   18.6579   17.0234 H   0  0  0  0  0  0  0  0  0  0  0  0
   39.3016   17.4259   18.2888 H   0  0  0  0  0  0  0  0  0  0  0  0
   39.0591   19.2111   20.0267 H   0  0  0  0  0  0  0  0  0  0  0  0
   39.0586   20.4427   18.7609 H   0  0  0  0  0  0  0  0  0  0  0  0
   41.3270   19.6858   18.0231 H   0  0  0  0  0  0  0  0  0  0  0  0
   41.3272   18.4527   19.2874 H   0  0  0  0  0  0  0  0  0  0  0  0
   41.0857   20.2358   21.0269 H   0  0  0  0  0  0  0  0  0  0  0  0
   41.0859   21.4691   19.7626 H   0  0  0  0  0  0  0  0  0  0  0  0
   43.3541   20.7119   19.0241 H   0  0  0  0  0  0  0  0  0  0  0  0
   43.3539   19.4784   20.2881 H   0  0  0  0  0  0  0  0  0  0  0  0
   43.1123   21.2611   22.0276 H   0  0  0  0  0  0  0  0  0  0  0  0
   43.1125   22.4946   20.7633 H   0  0  0  0  0  0  0  0  0  0  0  0
   45.3809   21.7373   20.0250 H   0  0  0  0  0  0  0  0  0  0  0  0
   45.3806   20.5043   21.2890 H   0  0  0  0  0  0  0  0  0  0  0  0
   45.1391   22.2870   23.0286 H   0  0  0  0  0  0  0  0  0  0  0  0
   45.1387   23.5202   21.7648 H   0  0  0  0  0  0  0  0  0  0  0  0
   47.4071   22.7630   21.0258 H   0  0  0  0  0  0  0  0  0  0  0  0
   47.4070   21.5296   22.2900 H   0  0  0  0  0  0  0  0  0  0  0  0
   47.1659   23.3126   24.0296 H   0  0  0  0  0  0  0  0  0  0  0  0
   47.1656   24.5460   22.7655 H   0  0  0  0  0  0  0  0  0  0  0  0
   49.4339   23.7890   22.0263 H   0  0  0  0  0  0  0  0  0  0  0  0
   49.4341   22.5555   23.2904 H   0  0  0  0  0  0  0  0  0  0  0  0
   49.1931   24.3377   25.0304 H   0  0  0  0  0  0  0  0  0  0  0  0
   49.1913   25.5717   23.7668 H   0  0  0  0  0  0  0  0  0  0  0  0
   51.4595   24.8165   23.0258 H   0  0  0  0  0  0  0  0  0  0  0  0
   51.4615   23.5826   24.2893 H   0  0  0  0  0  0  0  0  0  0  0  0
   51.2193   25.3656   26.0299 H   0  0  0  0  0  0  0  0  0  0  0  0
   51.2188   26.5988   24.7656 H   0  0  0  0  0  0  0  0  0  0  0  0
   53.4872   25.8403   24.0262 H   0  0  0  0  0  0  0  0  0  0  0  0
   53.4874   24.6086   25.2919 H   0  0  0  0  0  0  0  0  0  0  0  0
   53.2467   26.3930   27.0294 H   0  0  0  0  0  0  0  0  0  0  0  0
   53.2445   27.6254   25.7643 H   0  0  0  0  0  0  0  0  0  0  0  0
   55.5126   26.8683   25.0235 H   0  0  0  0  0  0  0  0  0  0  0  0
   55.5150   25.6378   26.2903 H   0  0  0  0  0  0  0  0  0  0  0  0
   55.2744   27.4236   28.0265 H   0  0  0  0  0  0  0  0  0  0  0  0
   55.2702   28.6548   26.7603 H   0  0  0  0  0  0  0  0  0  0  0  0
   57.5383   27.9014   26.0189 H   0  0  0  0  0  0  0  0  0  0  0  0
   57.5428   26.6688   27.2838 H   0  0  0  0  0  0  0  0  0  0  0  0
   57.3004   28.4531   29.0227 H   0  0  0  0  0  0  0  0  0  0  0  0
   57.2976   29.6852   27.7575 H   0  0  0  0  0  0  0  0  0  0  0  0
   59.5658   28.9296   27.0167 H   0  0  0  0  0  0  0  0  0  0  0  0
   59.5685   27.6974   28.2819 H   0  0  0  0  0  0  0  0  0  0  0  0
   59.3276   29.4808   30.0205 H   0  0  0  0  0  0  0  0  0  0  0  0
   59.3232   30.7136   28.7561 H   0  0  0  0  0  0  0  0  0  0  0  0
   61.5916   29.9603   28.0135 H   0  0  0  0  0  0  0  0  0  0  0  0
   61.5959   28.7274   29.2780 H   0  0  0  0  0  0  0  0  0  0  0  0
   61.3548   30.5105   31.0171 H   0  0  0  0  0  0  0  0  0  0  0  0
   61.3499   31.7435   29.7525 H   0  0  0  0  0  0  0  0  0  0  0  0
   63.6180   30.9903   29.0101 H   0  0  0  0  0  0  0  0  0  0  0  0
   63.6225   29.7579   30.2742 H   0  0  0  0  0  0  0  0  0  0  0  0
   63.3814   31.5407   32.0134 H   0  0  0  0  0  0  0  0  0  0  0  0
   63.3766   32.7735   30.7488 H   0  0  0  0  0  0  0  0  0  0  0  0
   65.6447   32.0202   30.0061 H   0  0  0  0  0  0  0  0  0  0  0  0
   65.6494   30.7874   31.2707 H   0  0  0  0  0  0  0  0  0  0  0  0
   65.4082   32.5708   33.0101 H   0  0  0  0  0  0  0  0  0  0  0  0
   65.4036   33.8037   31.7452 H   0  0  0  0  0  0  0  0  0  0  0  0
   67.6712   33.0504   31.0024 H   0  0  0  0  0  0  0  0  0  0  0  0
   67.6761   31.8175   32.2671 H   0  0  0  0  0  0  0  0  0  0  0  0
   67.4344   33.6007   34.0063 H   0  0  0  0  0  0  0  0  0  0  0  0
   67.4299   34.8335   32.7416 H   0  0  0  0  0  0  0  0  0  0  0  0
   69.6982   34.0798   31.9989 H   0  0  0  0  0  0  0  0  0  0  0  0
   69.7026   32.8471   33.2635 H   0  0  0  0  0  0  0  0  0  0  0  0
   69.4602   34.6308   35.0025 H   0  0  0  0  0  0  0  0  0  0  0  0
   69.4576   35.8634   33.7376 H   0  0  0  0  0  0  0  0  0  0  0  0
   71.7260   35.1078   32.9971 H   0  0  0  0  0  0  0  0  0  0  0  0
   71.7284   33.8756   34.2622 H   0  0  0  0  0  0  0  0  0  0  0  0
   71.4868   35.6601   36.0006 H   0  0  0  0  0  0  0  0  0  0  0  0
   71.4846   36.8922   34.7355 H   0  0  0  0  0  0  0  0  0  0  0  0
   73.7528   36.1363   33.9951 H   0  0  0  0  0  0  0  0  0  0  0  0
   73.7551   34.9041   35.2603 H   0  0  0  0  0  0  0  0  0  0  0  0
   73.5140   36.6886   36.9987 H   0  0  0  0  0  0  0  0  0  0  0  0
   73.5116   37.9207   35.7335 H   0  0  0  0  0  0  0  0  0  0  0  0
   75.7801   37.1652   34.9934 H   0  0  0  0  0  0  0  0  0  0  0  0
   75.7826   35.9333   36.2586 H   0  0  0  0  0  0  0  0  0  0  0  0
   75.5428   37.7171   37.9974 H   0  0  0  0  0  0  0  0  0  0  0  0
   75.5383   38.9499   36.7327 H   0  0  0  0  0  0  0  0  0  0  0  0
   77.8071   38.1967   35.9903 H   0  0  0  0  0  0  0  0  0  0  0  0
   77.8117   36.9639   37.2548 H   0  0  0  0  0  0  0  0  0  0  0  0
   77.5738   38.7477   38.9945 H   0  0  0  0  0  0  0  0  0  0  0  0
   77.5693   39.9804   37.7302 H   0  0  0  0  0  0  0  0  0  0  0  0
   79.8401   39.2300   36.9891 H   0  0  0  0  0  0  0  0  0  0  0  0
   79.8447   37.9956   38.2522 H   0  0  0  0  0  0  0  0  0  0  0  0
   79.6064   39.7787   39.9942 H   0  0  0  0  0  0  0  0  0  0  0  0
   79.6037   41.0119   38.7314 H   0  0  0  0  0  0  0  0  0  0  0  0
   81.8868   40.2738   38.0056 H   0  0  0  0  0  0  0  0  0  0  0  0
   81.8891   39.0400   39.2690 H   0  0  0  0  0  0  0  0  0  0  0  0
   81.6677   42.0593   39.7441 H   0  0  0  0  0  0  0  0  0  0  0  0
   83.1134   41.0651   40.0103 H   0  0  0  0  0  0  0  0  0  0  0  0
   81.6701   40.8196   41.0133 H   0  0  0  0  0  0  0  0  0  0  0  0
  1  2  1  0  0  0  0
  1 82  1  0  0  0  0
  1 83  1  0  0  0  0
  1 84  1  0  0  0  0
  2  3  1  0  0  0  0
  2 85  1  0  0  0  0
  2 86  1  0  0  0  0
  3  4  1  0  0  0  0
  3 87  1  0  0  0  0
  3 88  1  0  0  0  0
  4  5  1  0  0  0  0
  4 89  1  0  0  0  0
  4 90  1  0  0  0  0
  5  6  1  0  0  0  0
  5 91  1  0  0  0  0
  5 92  1  0  0  0  0
  6  7  1  0  0  0  0
  6 93  1  0  0  0  0
  6 94  1  0  0  0  0
  7  8  1  0  0  0  0
  8  9  1  0  0  0  0
  8 95  1  0  0  0  0
  8 96  1  0  0  0  0
  9 10  1  0  0  0  0
  9 97  1  0  0  0  0
  9 98  1  0  0  0  0
 10 11  1  0  0  0  0
 10 99  1  0  0  0  0
 10100  1  0  0  0  0
 11 12  1  0  0  0  0
 11101  1  0  0  0  0
 11102  1  0  0  0  0
 12 13  1  0  0  0  0
 12103  1  0  0  0  0
 12104  1  0  0  0  0
 13 14  1  0  0  0  0
 13105  1  0  0  0  0
 13106  1  0  0  0  0
 14 15  1  0  0  0  0
 14107  1  0  0  0  0
 14108  1  0  0  0  0
 15 16  1  0  0  0  0
 15109  1  0  0  0  0
 15110  1  0  0  0  0
 16 17  1  0  0  0  0
 16111  1  0  0  0  0
 16112  1  0  0  0  0
 17 18  1  0  0  0  0
 17113  1  0  0  0  0
 17114  1  0  0  0  0
 18 19  1  0  0  0  0
 18115  1  0  0  0  0
 18116  1  0  0  0  0
 19 20  1  0  0  0  0
 19117  1  0  0  0  0
 19118  1  0  0  0  0
 20 21  1  0  0  0  0
 20119  1  0  0  0  0
 20120  1  0  0  0  0
 21 22  1  0  0  0  0
 21121  1  0  0  0  0
 21122  1  0  0  0  0
 22 23  1  0  0  0  0
 22123  1  0  0  0  0
 22124  1  0  0  0  0
 23 24  1  0  0  0  0
 23125  1  0  0  0  0
 23126  1  0  0  0  0
 24 25  1  0  0  0  0
 24127  1  0  0  0  0
 24128  1  0  0  0  0
 25 26  1  0  0  0  0
 25129  1  0  0  0  0
 25130  1  0  0  0  0
 26 27  1  0  0  0  0
 26131  1  0  0  0  0
 26132  1  0  0  0  0
 27 28  1  0  0  0  0
 27133  1  0  0  0  0
 27134  1  0  0  0  0
 28 29  1  0  0  0  0
 28135  1  0  0  0  0
 28136  1  0  0  0  0
 29 30  1  0  0  0  0
 29137  1  0  0  0  0
 29138  1  0  0  0  0
 30 31  1  0  0  0  0
 30139  1  0  0  0  0
 30140  1  0  0  0  0
 31 32  1  0  0  0  0
 31141  1  0  0  0  0
 31142  1  0  0  0  0
 32 33  1  0  0  0  0
 32143  1  0  0  0  0
 32144  1  0  0  0  0
 33 34  1  0  0  0  0
 33145  1  0  0  0  0
 33146  1  0  0  0  0
 34 35  1  0  0  0  0
 34147  1  0  0  0  0
 34148  1  0  0  0  0
 35 36  1  0  0  0  0
 35149  1  0  0  0  0
 35150  1  0  0  0  0
 36 37  1  0  0  0  0
 36151  1  0  0  0  0
 36152  1  0  0  0  0
 37 38  1  0  0  0  0
 37153  1  0  0  0  0
 37154  1  0  0  0  0
 38 39  1  0  0  0  0
 38155  1  0  0  0  0
 38156  1  0  0  0  0
 39 40  1  0  0  0  0
 39157  1  0  0  0  0
 39158  1  0  0  0  0
 40 41  1  0  0  0  0
 40159  1  0  0  0  0
 40160  1  0  0  0  0
 41 42  1  0  0  0  0
 41161  1  0  0  0  0
 41162  1  0  0  0  0
 42 43  1  0  0  0  0
 42163  1  0  0  0  0
 42164  1  0  0  0  0
 43 44  1  0  0  0  0
 43165  1  0  0  0  0
 43166  1  0  0  0  0
 44 45  1  0  0  0  0
 44167  1  0  0  0  0
 44168  1  0  0  0  0
 45 46  1  0  0  0  0
 45169  1  0  0  0  0
 45170  1  0  0  0  0
 46 47  1  0  0  0  0
 46171  1  0  0  0  0
 46172  1  0  0  0  0
 47 48  1  0  0  0  0
 47173  1  0  0  0  0
 47174  1  0  0  0  0
 48 49  1  0  0  0  0
 48175  1  0  0  0  0
 48176  1  0  0  0  0
 49 50  1  0  0  0  0
 49177  1  0  0  0  0
 49178  1  0  0  0  0
 50 51  1  0  0  0  0
 50179  1  0  0  0  0
 50180  1  0  0  0  0
 51 52  1  0  0  0  0
 51181  1  0  0  0  0
 51182  1  0  0  0  0
 52 53  1  0  0  0  0
 52183  1  0  0  0  0
 52184  1  0  0  0  0
 53 54  1  0  0  0  0
 53185  1  0  0  0  0
 53186  1  0  0  0  0
 54 55  1  0  0  0  0
 54187  1  0  0  0  0
 54188  1  0  0  0  0
 55 56  1  0  0  0  0
 55189  1  0  0  0  0
 55190  1  0  0  0  0
 56 57  1  0  0  0  0
 56191  1  0  0  0  0
 56192  1  0  0  0  0
 57 58  1  0  0  0  0
 57193  1  0  0  0  0
 57194  1  0  0  0  0
 58 59  1  0  0  0  0
 58195  1  0  0  0  0
 58196  1  0  0  0  0
 59 60  1  0  0  0  0
 59197  1  0  0  0  0
 59198  1  0  0  0  0
 60 61  1  0  0  0  0
 60199  1  0  0  0  0
 60200  1  0  0  0  0
 61 62  1  0  0  0  0
 61201  1  0  0  0  0
 61202  1  0  0  0  0
 62 63  1  0  0  0  0
 62203  1  0  0  0  0
 62204  1  0  0  0  0
 63 64  1  0  0  0  0
 63205  1  0  0  0  0
 63206  1  0  0  0  0
 64 65  1  0  0  0  0
 64207  1  0  0  0  0
 64208  1  0  0  0  0
 65 66  1  0  0  0  0
 65209  1  0  0  0  0
 65210  1  0  0  0  0
 66 67  1  0  0  0  0
 66211  1  0  0  0  0
 66212  1  0  0  0  0
 67 68  1  0  0  0  0
 67213  1  0  0  0  0
 67214  1  0  0  0  0
 68 69  1  0  0  0  0
 68215  1  0  0  0  0
 68216  1  0  0  0  0
 69 70  1  0  0  0  0
 69217  1  0  0  0  0
 69218  1  0  0  0  0
 70 71  1  0  0  0  0
 70219  1  0  0  0  0
 70220  1  0  0  0  0
 71 72  1  0  0  0  0
 71221  1  0  0  0  0
 71222  1  0  0  0  0
 72 73  1  0  0  0  0
 72223  1  0  0  0  0
 72224  1  0  0  0  0
 73 74  1  0  0  0  0
 73225  1  0  0  0  0
 73226  1  0  0  0  0
 74 75  1  0  0  0  0
 74227  1  0  0  0  0
 74228  1  0  0  0  0
 75 76  1  0  0  0  0
 75229  1  0  0  0  0
 75230  1  0  0  0  0
 76 77  1  0  0  0  0
 76231  1  0  0  0  0
 76232  1  0  0  0  0
 77 78  1  0  0  0  0
 77233  1  0  0  0  0
 77234  1  0  0  0  0
 78 79  1  0  0  0  0
 78235  1  0  0  0  0
 78236  1  0  0  0  0
 79 80  1  0  0  0  0
 79237  1  0  0  0  0
 79238  1  0  0  0  0
 80 81  1  0  0  0  0
 80239  1  0  0  0  0
 80240  1  0  0  0  0
 81241  1  0  0  0  0
 81242  1  0  0  0  0
 81243  1  0  0  0  0
M  END
$$$$
