
 OpenBabel04232216483D

 54 54  0  0  0  0  0  0  0  0999 V2000
    4.4101   -0.9013    1.0845 C   0  0  0  0  0  0  0  0  0  0  0  0
    5.2318    0.3898    1.2425 C   0  0  0  0  0  0  0  0  0  0  0  0
    4.4760    1.4926    0.8786 C   0  0  0  0  0  0  0  0  0  0  0  0
    4.4247    1.8848   -0.3907 C   0  0  0  0  0  0  0  0  0  0  0  0
    4.1067    3.2799   -0.7571 C   0  0  0  0  0  0  0  0  0  0  0  0
    3.0111    3.8416    0.1390 C   0  0  0  0  0  0  0  0  0  0  0  0
    2.3463    5.1395   -0.2737 C   0  0  0  0  0  0  0  0  0  0  0  0
    5.2068    3.9611   -1.1948 C   0  0  0  0  0  0  0  0  0  0  0  0
    6.3208    4.0969   -0.1877 C   0  0  0  0  0  0  0  0  0  0  0  0
    6.1638    5.3134    0.6837 C   0  0  0  0  0  0  0  0  0  0  0  0
    6.9449    6.4453    0.0193 C   0  0  0  0  0  0  0  0  0  0  0  0
    6.7094    7.7925    0.6634 C   0  0  0  0  0  0  0  0  0  0  0  0
    7.2051    3.0801   -0.0133 C   0  0  0  0  0  0  0  0  0  0  0  0
    7.9233    2.6933    1.2014 C   0  0  0  0  0  0  0  0  0  0  0  0
    9.0471    3.6246    1.7986 C   0  0  0  0  0  0  0  0  0  0  0  0
    9.8818    4.6154    0.9145 C   0  0  0  0  0  0  0  0  0  0  0  0
   11.3442    4.9392    0.5166 C   0  0  0  0  0  0  0  0  0  0  0  0
   11.7801    4.6618   -0.9464 C   0  0  0  0  0  0  0  0  0  0  0  0
   12.0854    3.2008   -1.2274 C   0  0  0  0  0  0  0  0  0  0  0  0
   10.9266    2.3968   -1.1241 O   0  0  0  0  0  0  0  0  0  0  0  0
    7.5530    1.5560    1.8539 C   0  0  0  0  0  0  0  0  0  0  0  0
    6.5630    0.4413    1.5814 C   0  0  0  0  0  0  0  0  0  0  0  0
    3.3293   -0.6586    1.1625 H   0  0  0  0  0  0  0  0  0  0  0  0
    4.6027   -1.6411    1.8533 H   0  0  0  0  0  0  0  0  0  0  0  0
    4.5477   -1.3350    0.0880 H   0  0  0  0  0  0  0  0  0  0  0  0
    3.9947    2.0172    1.7159 H   0  0  0  0  0  0  0  0  0  0  0  0
    4.9855    1.3175   -1.1418 H   0  0  0  0  0  0  0  0  0  0  0  0
    3.3895    3.9773    1.1588 H   0  0  0  0  0  0  0  0  0  0  0  0
    2.2087    3.0926    0.2065 H   0  0  0  0  0  0  0  0  0  0  0  0
    3.0693    5.9050   -0.5593 H   0  0  0  0  0  0  0  0  0  0  0  0
    1.7684    5.5194    0.5777 H   0  0  0  0  0  0  0  0  0  0  0  0
    1.6457    4.9760   -1.0977 H   0  0  0  0  0  0  0  0  0  0  0  0
    5.6837    3.5016   -2.0743 H   0  0  0  0  0  0  0  0  0  0  0  0
    6.5096    5.1300    1.7042 H   0  0  0  0  0  0  0  0  0  0  0  0
    5.1098    5.5956    0.7808 H   0  0  0  0  0  0  0  0  0  0  0  0
    6.6818    6.5181   -1.0436 H   0  0  0  0  0  0  0  0  0  0  0  0
    8.0141    6.2241    0.0563 H   0  0  0  0  0  0  0  0  0  0  0  0
    5.6681    8.1043    0.5426 H   0  0  0  0  0  0  0  0  0  0  0  0
    7.3460    8.5366    0.1755 H   0  0  0  0  0  0  0  0  0  0  0  0
    6.9545    7.7735    1.7287 H   0  0  0  0  0  0  0  0  0  0  0  0
    7.2188    2.2751   -0.7589 H   0  0  0  0  0  0  0  0  0  0  0  0
    9.7245    3.0528    2.4075 H   0  0  0  0  0  0  0  0  0  0  0  0
    8.4512    4.2592    2.4969 H   0  0  0  0  0  0  0  0  0  0  0  0
    9.4757    4.4433   -0.0730 H   0  0  0  0  0  0  0  0  0  0  0  0
    9.8136    5.4763    1.5987 H   0  0  0  0  0  0  0  0  0  0  0  0
   12.0474    4.5577    1.2381 H   0  0  0  0  0  0  0  0  0  0  0  0
   11.4215    6.0545    0.5477 H   0  0  0  0  0  0  0  0  0  0  0  0
   12.6992    5.2311   -1.1447 H   0  0  0  0  0  0  0  0  0  0  0  0
   11.0399    5.0433   -1.6638 H   0  0  0  0  0  0  0  0  0  0  0  0
   12.8495    2.8260   -0.5412 H   0  0  0  0  0  0  0  0  0  0  0  0
   12.4722    3.0964   -2.2466 H   0  0  0  0  0  0  0  0  0  0  0  0
   10.7102    2.3144   -0.1806 H   0  0  0  0  0  0  0  0  0  0  0  0
    8.1159    1.2958    2.7556 H   0  0  0  0  0  0  0  0  0  0  0  0
    7.0629   -0.5135    1.7055 H   0  0  0  0  0  0  0  0  0  0  0  0
  1  2  1  0  0  0  0
  1 23  1  0  0  0  0
  1 24  1  0  0  0  0
  1 25  1  0  0  0  0
  2  3  1  0  0  0  0
  2 22  2  0  0  0  0
  3  4  2  0  0  0  0
  3 26  1  0  0  0  0
  4  5  1  0  0  0  0
  4 27  1  0  0  0  0
  5  6  1  0  0  0  0
  5  8  2  0  0  0  0
  6  7  1  0  0  0  0
  6 28  1  0  0  0  0
  6 29  1  0  0  0  0
  7 30  1  0  0  0  0
  7 31  1  0  0  0  0
  7 32  1  0  0  0  0
  8  9  1  0  0  0  0
  8 33  1  0  0  0  0
  9 10  1  0  0  0  0
  9 13  2  0  0  0  0
 10 11  1  0  0  0  0
 10 34  1  0  0  0  0
 10 35  1  0  0  0  0
 11 12  1  0  0  0  0
 11 36  1  0  0  0  0
 11 37  1  0  0  0  0
 12 38  1  0  0  0  0
 12 39  1  0  0  0  0
 12 40  1  0  0  0  0
 13 14  1  0  0  0  0
 13 41  1  0  0  0  0
 14 15  1  0  0  0  0
 14 21  2  0  0  0  0
 15 16  1  0  0  0  0
 15 42  1  0  0  0  0
 15 43  1  0  0  0  0
 16 17  1  0  0  0  0
 16 44  1  0  0  0  0
 16 45  1  0  0  0  0
 17 18  1  0  0  0  0
 17 46  1  0  0  0  0
 17 47  1  0  0  0  0
 18 19  1  0  0  0  0
 18 48  1  0  0  0  0
 18 49  1  0  0  0  0
 19 20  1  0  0  0  0
 19 50  1  0  0  0  0
 19 51  1  0  0  0  0
 20 52  1  0  0  0  0
 21 22  1  0  0  0  0
 21 53  1  0  0  0  0
 22 54  1  0  0  0  0
M  END
$$$$
