
 OpenBabel04232217023D

 93 92  0  0  0  0  0  0  0  0999 V2000
    9.9228   -3.6991    5.5035 O   0  0  0  0  0  0  0  0  0  0  0  0
    9.2380   -3.5508    3.9729 S   0  0  0  0  0  0  0  0  0  0  0  0
    9.9724   -4.9773    3.0911 C   0  0  0  0  0  0  0  0  0  0  0  0
    9.4362   -4.9732    1.6629 C   0  0  0  0  0  0  0  0  0  0  0  0
    9.9832   -6.1266    0.8247 C   0  0  0  0  0  0  0  0  0  0  0  0
    9.4359   -6.1085   -0.5994 C   0  0  0  0  0  0  0  0  0  0  0  0
    9.9839   -7.2368   -1.4444 C   0  0  0  0  0  0  0  0  0  0  0  0
    9.3434   -7.2193   -3.1645 S   0  0  0  0  0  0  0  0  0  0  0  0
    9.9450   -5.4259   -3.9738 S   0  0  0  0  0  0  0  0  0  0  0  0
   12.0090   -5.4171   -3.9712 S   0  0  0  0  0  0  0  0  0  0  0  0
   12.6826   -6.9597   -5.1755 S   0  0  0  0  0  0  0  0  0  0  0  0
   14.7758   -6.9420   -5.1302 S   0  0  0  0  0  0  0  0  0  0  0  0
   15.4644   -8.5431   -6.3051 S   0  0  0  0  0  0  0  0  0  0  0  0
   17.5701   -8.5293   -6.2955 S   0  0  0  0  0  0  0  0  0  0  0  0
   18.2593  -10.1358   -7.4739 S   0  0  0  0  0  0  0  0  0  0  0  0
   20.3680  -10.1251   -7.4660 S   0  0  0  0  0  0  0  0  0  0  0  0
   21.0583  -11.7320   -8.6449 S   0  0  0  0  0  0  0  0  0  0  0  0
   23.1676  -11.7213   -8.6370 S   0  0  0  0  0  0  0  0  0  0  0  0
   23.8582  -13.3283   -9.8159 S   0  0  0  0  0  0  0  0  0  0  0  0
   25.9676  -13.3176   -9.8081 S   0  0  0  0  0  0  0  0  0  0  0  0
   26.6582  -14.9247  -10.9871 S   0  0  0  0  0  0  0  0  0  0  0  0
   28.7676  -14.9140  -10.9792 S   0  0  0  0  0  0  0  0  0  0  0  0
   29.4582  -16.5211  -12.1582 S   0  0  0  0  0  0  0  0  0  0  0  0
   31.5675  -16.5104  -12.1504 S   0  0  0  0  0  0  0  0  0  0  0  0
   32.2582  -18.1175  -13.3293 S   0  0  0  0  0  0  0  0  0  0  0  0
   34.3675  -18.1068  -13.3215 S   0  0  0  0  0  0  0  0  0  0  0  0
   35.0582  -19.7139  -14.5005 S   0  0  0  0  0  0  0  0  0  0  0  0
   37.1675  -19.7032  -14.4926 S   0  0  0  0  0  0  0  0  0  0  0  0
   37.8582  -21.3103  -15.6716 S   0  0  0  0  0  0  0  0  0  0  0  0
   39.9675  -21.2996  -15.6637 S   0  0  0  0  0  0  0  0  0  0  0  0
   40.6582  -22.9067  -16.8427 S   0  0  0  0  0  0  0  0  0  0  0  0
   42.7675  -22.8960  -16.8349 S   0  0  0  0  0  0  0  0  0  0  0  0
   43.4581  -24.5031  -18.0138 S   0  0  0  0  0  0  0  0  0  0  0  0
   45.5675  -24.4924  -18.0060 S   0  0  0  0  0  0  0  0  0  0  0  0
   46.2581  -26.0995  -19.1850 S   0  0  0  0  0  0  0  0  0  0  0  0
   48.3675  -26.0888  -19.1771 S   0  0  0  0  0  0  0  0  0  0  0  0
   49.0581  -27.6958  -20.3561 S   0  0  0  0  0  0  0  0  0  0  0  0
   51.1675  -27.6852  -20.3482 S   0  0  0  0  0  0  0  0  0  0  0  0
   51.8581  -29.2922  -21.5272 S   0  0  0  0  0  0  0  0  0  0  0  0
   53.9675  -29.2816  -21.5194 S   0  0  0  0  0  0  0  0  0  0  0  0
   54.6581  -30.8886  -22.6983 S   0  0  0  0  0  0  0  0  0  0  0  0
   56.7675  -30.8779  -22.6905 S   0  0  0  0  0  0  0  0  0  0  0  0
   57.4581  -32.4850  -23.8695 S   0  0  0  0  0  0  0  0  0  0  0  0
   59.5675  -32.4743  -23.8616 S   0  0  0  0  0  0  0  0  0  0  0  0
   60.2581  -34.0814  -25.0406 S   0  0  0  0  0  0  0  0  0  0  0  0
   62.3675  -34.0707  -25.0328 S   0  0  0  0  0  0  0  0  0  0  0  0
   63.0581  -35.6778  -26.2117 S   0  0  0  0  0  0  0  0  0  0  0  0
   65.1675  -35.6671  -26.2039 S   0  0  0  0  0  0  0  0  0  0  0  0
   65.8581  -37.2742  -27.3828 S   0  0  0  0  0  0  0  0  0  0  0  0
   67.9675  -37.2635  -27.3750 S   0  0  0  0  0  0  0  0  0  0  0  0
   68.6581  -38.8706  -28.5540 S   0  0  0  0  0  0  0  0  0  0  0  0
   70.7674  -38.8599  -28.5461 S   0  0  0  0  0  0  0  0  0  0  0  0
   71.4581  -40.4670  -29.7251 S   0  0  0  0  0  0  0  0  0  0  0  0
   73.5674  -40.4563  -29.7173 S   0  0  0  0  0  0  0  0  0  0  0  0
   74.2581  -42.0634  -30.8962 S   0  0  0  0  0  0  0  0  0  0  0  0
   76.3674  -42.0527  -30.8884 S   0  0  0  0  0  0  0  0  0  0  0  0
   77.0581  -43.6598  -32.0674 S   0  0  0  0  0  0  0  0  0  0  0  0
   79.1674  -43.6491  -32.0595 S   0  0  0  0  0  0  0  0  0  0  0  0
   79.8580  -45.2562  -33.2385 S   0  0  0  0  0  0  0  0  0  0  0  0
   81.9674  -45.2455  -33.2306 S   0  0  0  0  0  0  0  0  0  0  0  0
   82.6580  -46.8526  -34.4096 S   0  0  0  0  0  0  0  0  0  0  0  0
   84.7674  -46.8419  -34.4018 S   0  0  0  0  0  0  0  0  0  0  0  0
   85.4580  -48.4490  -35.5807 S   0  0  0  0  0  0  0  0  0  0  0  0
   87.5674  -48.4383  -35.5729 S   0  0  0  0  0  0  0  0  0  0  0  0
   88.2580  -50.0454  -36.7519 S   0  0  0  0  0  0  0  0  0  0  0  0
   90.3674  -50.0347  -36.7440 S   0  0  0  0  0  0  0  0  0  0  0  0
   91.0580  -51.6418  -37.9230 S   0  0  0  0  0  0  0  0  0  0  0  0
   93.1674  -51.6311  -37.9151 S   0  0  0  0  0  0  0  0  0  0  0  0
   93.8580  -53.2381  -39.0941 S   0  0  0  0  0  0  0  0  0  0  0  0
   95.9674  -53.2275  -39.0863 S   0  0  0  0  0  0  0  0  0  0  0  0
   96.6580  -54.8345  -40.2652 S   0  0  0  0  0  0  0  0  0  0  0  0
   98.7672  -54.8238  -40.2574 S   0  0  0  0  0  0  0  0  0  0  0  0
   99.4576  -56.4307  -41.4362 S   0  0  0  0  0  0  0  0  0  0  0  0
  101.5663  -56.4197  -41.4281 S   0  0  0  0  0  0  0  0  0  0  0  0
  102.2554  -58.0258  -42.6065 S   0  0  0  0  0  0  0  0  0  0  0  0
  104.3606  -58.0131  -42.5966 S   0  0  0  0  0  0  0  0  0  0  0  0
  105.0442  -59.6152  -43.7723 S   0  0  0  0  0  0  0  0  0  0  0  0
  107.1356  -59.5733  -43.7725 S   0  0  0  0  0  0  0  0  0  0  0  0
  107.8151  -61.2019  -44.8721 S   0  0  0  0  0  0  0  0  0  0  0  0
  109.8900  -61.1261  -44.8914 S   0  0  0  0  0  0  0  0  0  0  0  0
  110.4944  -61.4229  -42.9499 S   0  0  0  0  0  0  0  0  0  0  0  0
    9.6171   -2.9985    6.0833 H   0  0  0  0  0  0  0  0  0  0  0  0
    9.7026   -5.9101    3.6018 H   0  0  0  0  0  0  0  0  0  0  0  0
   11.0664   -4.8934    3.0928 H   0  0  0  0  0  0  0  0  0  0  0  0
    9.6956   -4.0233    1.1697 H   0  0  0  0  0  0  0  0  0  0  0  0
    8.3368   -5.0362    1.6768 H   0  0  0  0  0  0  0  0  0  0  0  0
    9.7250   -7.0841    1.3025 H   0  0  0  0  0  0  0  0  0  0  0  0
   11.0824   -6.0718    0.7959 H   0  0  0  0  0  0  0  0  0  0  0  0
    9.6937   -5.1393   -1.0584 H   0  0  0  0  0  0  0  0  0  0  0  0
    8.3361   -6.1627   -0.5680 H   0  0  0  0  0  0  0  0  0  0  0  0
    9.7176   -8.2057   -1.0017 H   0  0  0  0  0  0  0  0  0  0  0  0
   11.0735   -7.2070   -1.4971 H   0  0  0  0  0  0  0  0  0  0  0  0
  111.8371  -61.3751  -43.0539 H   0  0  0  0  0  0  0  0  0  0  0  0
  1  2  1  0  0  0  0
  1 82  1  0  0  0  0
  2  3  1  0  0  0  0
  3  4  1  0  0  0  0
  3 83  1  0  0  0  0
  3 84  1  0  0  0  0
  4  5  1  0  0  0  0
  4 85  1  0  0  0  0
  4 86  1  0  0  0  0
  5  6  1  0  0  0  0
  5 87  1  0  0  0  0
  5 88  1  0  0  0  0
  6  7  1  0  0  0  0
  6 89  1  0  0  0  0
  6 90  1  0  0  0  0
  7  8  1  0  0  0  0
  7 91  1  0  0  0  0
  7 92  1  0  0  0  0
  8  9  1  0  0  0  0
  9 10  1  0  0  0  0
 10 11  1  0  0  0  0
 11 12  1  0  0  0  0
 12 13  1  0  0  0  0
 13 14  1  0  0  0  0
 14 15  1  0  0  0  0
 15 16  1  0  0  0  0
 16 17  1  0  0  0  0
 17 18  1  0  0  0  0
 18 19  1  0  0  0  0
 19 20  1  0  0  0  0
 20 21  1  0  0  0  0
 21 22  1  0  0  0  0
 22 23  1  0  0  0  0
 23 24  1  0  0  0  0
 24 25  1  0  0  0  0
 25 26  1  0  0  0  0
 26 27  1  0  0  0  0
 27 28  1  0  0  0  0
 28 29  1  0  0  0  0
 29 30  1  0  0  0  0
 30 31  1  0  0  0  0
 31 32  1  0  0  0  0
 32 33  1  0  0  0  0
 33 34  1  0  0  0  0
 34 35  1  0  0  0  0
 35 36  1  0  0  0  0
 36 37  1  0  0  0  0
 37 38  1  0  0  0  0
 38 39  1  0  0  0  0
 39 40  1  0  0  0  0
 40 41  1  0  0  0  0
 41 42  1  0  0  0  0
 42 43  1  0  0  0  0
 43 44  1  0  0  0  0
 44 45  1  0  0  0  0
 45 46  1  0  0  0  0
 46 47  1  0  0  0  0
 47 48  1  0  0  0  0
 48 49  1  0  0  0  0
 49 50  1  0  0  0  0
 50 51  1  0  0  0  0
 51 52  1  0  0  0  0
 52 53  1  0  0  0  0
 53 54  1  0  0  0  0
 54 55  1  0  0  0  0
 55 56  1  0  0  0  0
 56 57  1  0  0  0  0
 57 58  1  0  0  0  0
 58 59  1  0  0  0  0
 59 60  1  0  0  0  0
 60 61  1  0  0  0  0
 61 62  1  0  0  0  0
 62 63  1  0  0  0  0
 63 64  1  0  0  0  0
 64 65  1  0  0  0  0
 65 66  1  0  0  0  0
 66 67  1  0  0  0  0
 67 68  1  0  0  0  0
 68 69  1  0  0  0  0
 69 70  1  0  0  0  0
 70 71  1  0  0  0  0
 71 72  1  0  0  0  0
 72 73  1  0  0  0  0
 73 74  1  0  0  0  0
 74 75  1  0  0  0  0
 75 76  1  0  0  0  0
 76 77  1  0  0  0  0
 77 78  1  0  0  0  0
 78 79  1  0  0  0  0
 79 80  1  0  0  0  0
 80 81  1  0  0  0  0
 81 93  1  0  0  0  0
M  END
$$$$
