
 OpenBabel04232216513D

 68 71  0  0  1  0  0  0  0  0999 V2000
    6.3009   -1.9474   -4.0452 C   0  0  0  0  0  0  0  0  0  0  0  0
    7.5372   -2.4736   -5.4298 C   0  0  0  0  0  0  0  0  0  0  0  0
    9.0260   -3.6243   -6.0540 C   0  0  0  0  0  0  0  0  0  0  0  0
   10.2982   -3.4815   -5.4847 C   0  0  0  0  0  0  0  0  0  0  0  0
    9.5809   -2.8702   -4.1179 C   0  0  0  0  0  0  0  0  0  0  0  0
    8.6328   -2.8856   -3.0948 C   0  0  0  0  0  0  0  0  0  0  0  0
    8.0032   -4.1118   -2.6601 C   0  0  0  0  0  0  0  0  0  0  0  0
    6.9081   -4.8226   -3.6226 C   0  0  0  0  0  0  0  0  0  0  0  0
    6.7305   -5.0658   -5.2418 C   0  0  0  0  0  0  0  0  0  0  0  0
    7.8629   -5.6933   -6.3287 C   0  0  0  0  0  0  0  0  0  0  0  0
    9.1478   -5.2137   -6.7413 C   0  0  0  0  0  0  0  0  0  0  0  0
   10.5956   -6.1131   -7.7894 C   0  0  0  0  0  0  0  0  0  0  0  0
   12.1808   -7.2155   -8.1599 C   0  0  3  0  0  0  0  0  0  0  0  0
   13.5033   -7.6222   -9.4017 C   0  0  0  0  0  0  0  0  0  0  0  0
   15.0898   -8.1964   -9.1579 C   0  0  0  0  0  0  0  0  0  0  0  0
   15.8636   -7.2696   -8.1976 C   0  0  0  0  0  0  0  0  0  0  0  0
   15.0530   -5.8386   -7.3121 C   0  0  0  0  0  0  0  0  0  0  0  0
   13.3912   -5.1418   -6.4693 C   0  0  0  0  0  0  0  0  0  0  0  0
   12.0095   -4.1061   -5.5032 C   0  0  0  0  0  0  0  0  0  0  0  0
   12.5456   -3.3938   -4.4234 C   0  0  0  0  0  0  0  0  0  0  0  0
   11.7601   -3.2483   -3.0587 C   0  0  0  0  0  0  0  0  0  0  0  0
   11.1680   -2.9181   -1.8551 C   0  0  0  0  0  0  0  0  0  0  0  0
   10.1829   -4.0188   -0.8122 S   0  0  0  0  0  0  0  0  0  0  0  0
    8.8939   -4.7851   -1.8696 C   0  0  0  0  0  0  0  0  0  0  0  0
    9.2387   -5.9776   -2.6142 C   0  0  0  0  0  0  0  0  0  0  0  0
   10.4511   -6.0409   -3.1424 C   0  0  0  0  0  0  0  0  0  0  0  0
   10.6057   -6.7557   -4.3292 C   0  0  0  0  0  0  0  0  0  0  0  0
   11.8326   -7.1986   -4.4880 C   0  0  0  0  0  0  0  0  0  0  0  0
   11.8519   -8.4089   -5.1869 C   0  0  0  0  0  0  0  0  0  0  0  0
   12.9994   -9.0616   -5.4121 C   0  0  0  0  0  0  0  0  0  0  0  0
   12.9582   -9.3452   -6.8281 C   0  0  0  0  0  0  0  0  0  0  0  0
   13.0129   -8.0765   -7.2622 C   0  0  0  0  0  0  0  0  0  0  0  0
    5.6052   -1.1360   -4.4038 H   0  0  0  0  0  0  0  0  0  0  0  0
    6.6951   -1.4549   -3.1157 H   0  0  0  0  0  0  0  0  0  0  0  0
    5.5160   -2.6089   -3.6218 H   0  0  0  0  0  0  0  0  0  0  0  0
    8.0341   -1.4603   -5.3217 H   0  0  0  0  0  0  0  0  0  0  0  0
    6.8005   -2.3723   -6.2586 H   0  0  0  0  0  0  0  0  0  0  0  0
    9.4990   -3.9872   -4.0805 H   0  0  0  0  0  0  0  0  0  0  0  0
    8.4497   -2.0267   -2.4255 H   0  0  0  0  0  0  0  0  0  0  0  0
    6.4750   -5.7038   -3.1178 H   0  0  0  0  0  0  0  0  0  0  0  0
    6.0762   -4.1676   -3.4452 H   0  0  0  0  0  0  0  0  0  0  0  0
    6.1580   -4.2161   -5.6716 H   0  0  0  0  0  0  0  0  0  0  0  0
    5.8496   -5.7496   -5.2703 H   0  0  0  0  0  0  0  0  0  0  0  0
    7.4312   -6.5754   -6.7839 H   0  0  0  0  0  0  0  0  0  0  0  0
   10.8055   -5.2836   -8.4695 H   0  0  0  0  0  0  0  0  0  0  0  0
    9.8483   -6.7817   -8.3156 H   0  0  0  0  0  0  0  0  0  0  0  0
   11.5148   -8.0592   -8.6902 H   0  0  0  0  0  0  0  0  0  0  0  0
   13.1975   -8.6221   -9.7699 H   0  0  0  0  0  0  0  0  0  0  0  0
   13.7532   -6.8214  -10.0660 H   0  0  0  0  0  0  0  0  0  0  0  0
   15.6394   -8.2955  -10.1462 H   0  0  0  0  0  0  0  0  0  0  0  0
   15.2065   -9.2875   -8.8838 H   0  0  0  0  0  0  0  0  0  0  0  0
   16.4338   -7.9530   -7.5072 H   0  0  0  0  0  0  0  0  0  0  0  0
   16.7488   -6.9168   -8.7894 H   0  0  0  0  0  0  0  0  0  0  0  0
   15.4628   -5.0255   -7.9636 H   0  0  0  0  0  0  0  0  0  0  0  0
   15.6849   -6.0303   -6.4362 H   0  0  0  0  0  0  0  0  0  0  0  0
   14.0796   -4.2740   -6.3222 H   0  0  0  0  0  0  0  0  0  0  0  0
   13.5955   -5.8452   -5.6463 H   0  0  0  0  0  0  0  0  0  0  0  0
   12.5228   -2.3423   -4.8266 H   0  0  0  0  0  0  0  0  0  0  0  0
   11.8284   -2.1617   -3.2421 H   0  0  0  0  0  0  0  0  0  0  0  0
   11.1601   -1.8725   -1.5209 H   0  0  0  0  0  0  0  0  0  0  0  0
    8.4800   -6.4582   -3.2310 H   0  0  0  0  0  0  0  0  0  0  0  0
   11.3125   -5.5108   -2.7733 H   0  0  0  0  0  0  0  0  0  0  0  0
    9.7558   -7.1410   -4.8859 H   0  0  0  0  0  0  0  0  0  0  0  0
   12.6949   -6.7488   -4.0086 H   0  0  0  0  0  0  0  0  0  0  0  0
   11.0230   -8.5091   -5.9064 H   0  0  0  0  0  0  0  0  0  0  0  0
   13.9130   -8.6910   -4.9302 H   0  0  0  0  0  0  0  0  0  0  0  0
   12.1305   -9.9496   -7.1772 H   0  0  0  0  0  0  0  0  0  0  0  0
   14.1102   -7.8009   -7.0412 H   0  0  0  0  0  0  0  0  0  0  0  0
  1  2  1  0  0  0  0
  1 33  1  0  0  0  0
  1 34  1  0  0  0  0
  1 35  1  0  0  0  0
  2  3  1  0  0  0  0
  2 36  1  0  0  0  0
  2 37  1  0  0  0  0
  3  4  2  3  0  0  0
  3 11  1  0  0  0  0
  4  5  1  0  0  0  0
  4 19  1  0  0  0  0
  5  6  2  3  0  0  0
  5 38  1  0  0  0  0
  6  7  1  0  0  0  0
  6 39  1  0  0  0  0
  7  8  1  0  0  0  0
  7 24  2  3  0  0  0
  8  9  1  0  0  0  0
  8 40  1  0  0  0  0
  8 41  1  0  0  0  0
  9 10  1  0  0  0  0
  9 42  1  0  0  0  0
  9 43  1  0  0  0  0
 10 11  2  3  0  0  0
 10 44  1  0  0  0  0
 11 12  1  0  0  0  0
 12 13  1  0  0  0  0
 12 45  1  0  0  0  0
 12 46  1  0  0  0  0
 13 14  1  0  0  0  0
 13 32  1  0  0  0  0
 13 47  1  0  0  0  0
 14 15  1  0  0  0  0
 14 48  1  0  0  0  0
 14 49  1  0  0  0  0
 15 16  1  0  0  0  0
 15 50  1  0  0  0  0
 15 51  1  0  0  0  0
 16 17  1  0  0  0  0
 16 52  1  0  0  0  0
 16 53  1  0  0  0  0
 17 18  1  0  0  0  0
 17 54  1  0  0  0  0
 17 55  1  0  0  0  0
 18 19  1  0  0  0  0
 18 56  1  0  0  0  0
 18 57  1  0  0  0  0
 19 20  2  3  0  0  0
 20 21  1  0  0  0  0
 20 58  1  0  0  0  0
 21 22  2  3  0  0  0
 21 59  1  0  0  0  0
 22 23  1  0  0  0  0
 22 60  1  0  0  0  0
 23 24  1  0  0  0  0
 24 25  1  0  0  0  0
 25 26  2  3  0  0  0
 25 61  1  0  0  0  0
 26 27  1  0  0  0  0
 26 62  1  0  0  0  0
 27 28  2  3  0  0  0
 27 63  1  0  0  0  0
 28 29  1  0  0  0  0
 28 64  1  0  0  0  0
 29 30  2  3  0  0  0
 29 65  1  0  0  0  0
 30 31  1  0  0  0  0
 30 66  1  0  0  0  0
 31 32  2  3  0  0  0
 31 67  1  0  0  0  0
 32 68  1  0  0  0  0
M  END
$$$$
