
 OpenBabel04232216423D

 54 56  0  0  0  0  0  0  0  0999 V2000
   -0.3798   -1.5272    0.5424 C   0  0  0  0  0  0  0  0  0  0  0  0
    0.9928   -1.1682    0.7828 C   0  0  0  0  0  3  0  0  0  0  0  0
    1.6457    0.1048    0.9536 C   0  0  0  0  0  0  0  0  0  0  0  0
    1.3335    1.2993    0.4014 C   0  0  0  0  0  0  0  0  0  0  0  0
    2.3717    2.2895    0.4087 N   0  0  0  0  0  0  0  0  0  0  0  0
    3.6730    2.0337   -0.2679 C   0  0  0  0  0  0  0  0  0  0  0  0
    4.8249    2.4283    0.6276 C   0  0  0  0  0  0  0  0  0  0  0  0
    4.7180    3.9103    0.9627 C   0  0  0  0  0  0  0  0  0  0  0  0
    3.3447    4.2455    1.5398 C   0  0  0  0  0  0  0  0  0  0  0  0
    2.1939    3.7203    0.6824 C   0  0  0  0  0  0  0  0  0  0  0  0
    0.0171    1.5177   -0.4411 C   0  0  0  0  0  0  0  0  0  0  0  0
    0.2495    1.2302   -1.9782 C   0  0  0  0  0  0  0  0  0  0  0  0
    1.6800    0.8545   -2.3643 C   0  0  0  0  0  0  0  0  0  0  0  0
    1.9399    0.6059   -3.7700 N   0  0  0  0  0  0  0  0  0  0  0  0
    1.8457    1.7627   -4.5055 F   0  0  0  0  0  0  0  0  0  0  0  0
   -0.5361    2.9638   -0.2760 C   0  0  0  0  0  0  0  0  0  0  0  0
   -1.2138    0.7189    0.0335 C   0  0  0  0  0  0  0  0  0  0  0  0
   -1.3813   -0.7099    0.1865 C   0  0  0  0  0  0  0  0  0  0  0  0
   -2.8129   -1.2385    0.0058 C   0  0  0  0  0  0  0  0  0  0  0  0
   -3.3890   -0.9853   -1.4000 C   0  0  0  0  0  0  0  0  0  0  0  0
   -4.7818   -1.5427   -1.5974 C   0  0  0  0  0  0  0  0  0  0  0  0
   -5.1353   -2.7892   -2.0834 C   0  0  0  0  0  0  0  0  0  0  0  0
   -6.5473   -2.9473   -2.2178 C   0  0  0  0  0  0  0  0  0  0  0  0
   -7.2337   -1.8176   -1.8199 C   0  0  0  0  0  0  0  0  0  0  0  0
   -6.1660   -0.5805   -1.2957 S   0  0  0  0  0  0  0  0  0  0  0  0
   -0.5871   -2.5891    0.6690 H   0  0  0  0  0  0  0  0  0  0  0  0
    1.6697   -2.0189    0.8564 H   0  0  0  0  0  0  0  0  0  0  0  0
    2.5972    0.0297    1.4826 H   0  0  0  0  0  0  0  0  0  0  0  0
    3.7393    2.6447   -1.1814 H   0  0  0  0  0  0  0  0  0  0  0  0
    3.7869    0.9881   -0.5677 H   0  0  0  0  0  0  0  0  0  0  0  0
    5.7714    2.2287    0.1131 H   0  0  0  0  0  0  0  0  0  0  0  0
    4.8041    1.8222    1.5395 H   0  0  0  0  0  0  0  0  0  0  0  0
    4.8829    4.5017    0.0521 H   0  0  0  0  0  0  0  0  0  0  0  0
    5.5020    4.1874    1.6738 H   0  0  0  0  0  0  0  0  0  0  0  0
    3.2453    5.3286    1.6503 H   0  0  0  0  0  0  0  0  0  0  0  0
    3.2601    3.8015    2.5395 H   0  0  0  0  0  0  0  0  0  0  0  0
    2.1632    4.2766   -0.2637 H   0  0  0  0  0  0  0  0  0  0  0  0
    1.2739    3.9102    1.2394 H   0  0  0  0  0  0  0  0  0  0  0  0
   -0.0172    2.1250   -2.5540 H   0  0  0  0  0  0  0  0  0  0  0  0
   -0.4193    0.4372   -2.3296 H   0  0  0  0  0  0  0  0  0  0  0  0
    2.0269   -0.0288   -1.8079 H   0  0  0  0  0  0  0  0  0  0  0  0
    2.3086    1.7027   -2.1413 H   0  0  0  0  0  0  0  0  0  0  0  0
    1.3328   -0.1377   -4.1293 H   0  0  0  0  0  0  0  0  0  0  0  0
    0.1565    3.7302   -0.6256 H   0  0  0  0  0  0  0  0  0  0  0  0
   -0.8055    3.1709    0.7665 H   0  0  0  0  0  0  0  0  0  0  0  0
   -1.4391    3.1281   -0.8808 H   0  0  0  0  0  0  0  0  0  0  0  0
   -2.1598    1.2603    0.0799 H   0  0  0  0  0  0  0  0  0  0  0  0
   -3.4592   -0.7780    0.7653 H   0  0  0  0  0  0  0  0  0  0  0  0
   -2.8422   -2.3172    0.2113 H   0  0  0  0  0  0  0  0  0  0  0  0
   -2.7313   -1.4414   -2.1462 H   0  0  0  0  0  0  0  0  0  0  0  0
   -3.4034    0.0887   -1.6209 H   0  0  0  0  0  0  0  0  0  0  0  0
   -4.4145   -3.5456   -2.3583 H   0  0  0  0  0  0  0  0  0  0  0  0
   -7.0341   -3.8367   -2.5983 H   0  0  0  0  0  0  0  0  0  0  0  0
   -8.3031   -1.6547   -1.8321 H   0  0  0  0  0  0  0  0  0  0  0  0
  1  2  1  0  0  0  0
  1 18  2  0  0  0  0
  1 26  1  0  0  0  0
  2  3  1  0  0  0  0
  2 27  1  0  0  0  0
  3  4  2  0  0  0  0
  3 28  1  0  0  0  0
  4  5  1  0  0  0  0
  4 11  1  0  0  0  0
  5  6  1  0  0  0  0
  5 10  1  0  0  0  0
  6  7  1  0  0  0  0
  6 29  1  0  0  0  0
  6 30  1  0  0  0  0
  7  8  1  0  0  0  0
  7 31  1  0  0  0  0
  7 32  1  0  0  0  0
  8  9  1  0  0  0  0
  8 33  1  0  0  0  0
  8 34  1  0  0  0  0
  9 10  1  0  0  0  0
  9 35  1  0  0  0  0
  9 36  1  0  0  0  0
 10 37  1  0  0  0  0
 10 38  1  0  0  0  0
 11 12  1  0  0  0  0
 11 16  1  0  0  0  0
 11 17  2  0  0  0  0
 12 13  1  0  0  0  0
 12 39  1  0  0  0  0
 12 40  1  0  0  0  0
 13 14  1  0  0  0  0
 13 41  1  0  0  0  0
 13 42  1  0  0  0  0
 14 15  1  0  0  0  0
 14 43  1  0  0  0  0
 16 44  1  0  0  0  0
 16 45  1  0  0  0  0
 16 46  1  0  0  0  0
 17 18  1  0  0  0  0
 17 47  1  0  0  0  0
 18 19  1  0  0  0  0
 19 20  1  0  0  0  0
 19 48  1  0  0  0  0
 19 49  1  0  0  0  0
 20 21  1  0  0  0  0
 20 50  1  0  0  0  0
 20 51  1  0  0  0  0
 21 22  2  0  0  0  0
 21 25  1  0  0  0  0
 22 23  1  0  0  0  0
 22 52  1  0  0  0  0
 23 24  2  0  0  0  0
 23 53  1  0  0  0  0
 24 25  1  0  0  0  0
 24 54  1  0  0  0  0
M  END
$$$$
