
 OpenBabel04232216403D

 49 50  0  0  0  0  0  0  0  0999 V2000
    2.8209    2.9973   -0.0270 C   0  0  0  0  0  0  0  0  0  0  0  0
    4.0270    2.9727    0.5547 C   0  0  0  0  0  0  0  0  0  0  0  0
    5.1846    1.9858    0.4363 C   0  0  0  0  0  0  0  0  0  0  0  0
    6.2449    2.2002   -0.6167 N   0  0  0  0  0  0  0  0  0  0  0  0
    5.8361    1.8747   -1.9401 C   0  0  0  0  0  0  0  0  0  0  0  0
    4.4138    2.0269   -2.4214 C   0  0  0  0  0  0  0  0  0  0  0  0
    6.4692    1.0565   -2.7801 C   0  0  0  0  0  0  0  0  0  0  0  0
    7.6005    1.5922   -3.5076 C   0  0  0  0  0  0  0  0  0  0  0  0
    7.4629    2.9182   -4.0570 N   0  0  0  0  0  0  0  0  0  0  0  0
    7.1149    4.1294   -3.2900 C   0  0  0  0  0  0  0  0  0  0  0  0
    5.9086    4.7232   -4.0107 C   0  0  0  0  0  0  0  0  0  0  0  0
    6.2405    4.4379   -5.4554 C   0  0  0  0  0  0  0  0  0  0  0  0
    6.9875    3.1044   -5.4313 C   0  0  0  0  0  0  0  0  0  0  0  0
    8.7596    0.9596   -3.2374 C   0  0  0  0  0  0  0  0  0  0  0  0
    8.9224   -0.4697   -2.6716 C   0  0  0  0  0  0  0  0  0  0  0  0
    9.8633    1.7473   -2.8510 N   0  0  0  0  0  0  0  0  0  0  0  0
   10.3211    2.8523   -3.6991 C   0  0  0  0  0  0  0  0  0  0  0  0
    9.8195    1.9645   -1.4491 C   0  0  0  0  0  0  0  0  0  0  0  0
    8.9549    2.8087   -0.8193 C   0  0  0  0  0  0  0  0  0  0  0  0
    9.7446    3.8743   -0.0632 C   0  0  0  0  0  0  0  0  0  0  0  0
    7.6064    2.3648   -0.0913 C   0  0  0  0  0  0  0  0  0  0  0  0
    7.7580    2.3117    1.1455 O   0  0  0  0  0  0  0  0  0  0  0  0
    2.0636    3.7266    0.2907 H   0  0  0  0  0  0  0  0  0  0  0  0
    2.4813    2.3507   -0.8218 H   0  0  0  0  0  0  0  0  0  0  0  0
    4.1331    3.6519    1.3998 H   0  0  0  0  0  0  0  0  0  0  0  0
    4.8120    0.9609    0.3278 H   0  0  0  0  0  0  0  0  0  0  0  0
    5.6449    2.0076    1.4298 H   0  0  0  0  0  0  0  0  0  0  0  0
    3.7636    1.2516   -2.0025 H   0  0  0  0  0  0  0  0  0  0  0  0
    4.3451    1.9097   -3.5121 H   0  0  0  0  0  0  0  0  0  0  0  0
    4.0470    3.0317   -2.2307 H   0  0  0  0  0  0  0  0  0  0  0  0
    6.6765    0.0964   -2.3045 H   0  0  0  0  0  0  0  0  0  0  0  0
    7.9398    4.8470   -3.3474 H   0  0  0  0  0  0  0  0  0  0  0  0
    6.9047    4.0126   -2.2269 H   0  0  0  0  0  0  0  0  0  0  0  0
    5.7774    5.7866   -3.7941 H   0  0  0  0  0  0  0  0  0  0  0  0
    4.9805    4.2204   -3.7412 H   0  0  0  0  0  0  0  0  0  0  0  0
    6.8866    5.2316   -5.8471 H   0  0  0  0  0  0  0  0  0  0  0  0
    5.3420    4.3983   -6.0795 H   0  0  0  0  0  0  0  0  0  0  0  0
    7.8397    3.1343   -6.1142 H   0  0  0  0  0  0  0  0  0  0  0  0
    6.3242    2.2833   -5.7362 H   0  0  0  0  0  0  0  0  0  0  0  0
    8.1033   -1.1544   -2.9462 H   0  0  0  0  0  0  0  0  0  0  0  0
    9.0022   -0.4623   -1.5855 H   0  0  0  0  0  0  0  0  0  0  0  0
    9.8402   -0.9152   -3.0647 H   0  0  0  0  0  0  0  0  0  0  0  0
    9.7936    3.7766   -3.4803 H   0  0  0  0  0  0  0  0  0  0  0  0
   10.2140    2.6220   -4.7623 H   0  0  0  0  0  0  0  0  0  0  0  0
   11.3805    3.0562   -3.5060 H   0  0  0  0  0  0  0  0  0  0  0  0
   10.8869    2.0628   -1.2376 H   0  0  0  0  0  0  0  0  0  0  0  0
    9.4890    4.8698   -0.4308 H   0  0  0  0  0  0  0  0  0  0  0  0
   10.8283    3.7858   -0.2389 H   0  0  0  0  0  0  0  0  0  0  0  0
    9.6328    3.8231    1.0231 H   0  0  0  0  0  0  0  0  0  0  0  0
  1  2  2  0  0  0  0
  1 23  1  0  0  0  0
  1 24  1  0  0  0  0
  2  3  1  0  0  0  0
  2 25  1  0  0  0  0
  3  4  1  0  0  0  0
  3 26  1  0  0  0  0
  3 27  1  0  0  0  0
  4  5  1  0  0  0  0
  4 21  1  0  0  0  0
  5  6  1  0  0  0  0
  5  7  2  0  0  0  0
  6 28  1  0  0  0  0
  6 29  1  0  0  0  0
  6 30  1  0  0  0  0
  7  8  1  0  0  0  0
  7 31  1  0  0  0  0
  8  9  1  0  0  0  0
  8 14  2  0  0  0  0
  9 10  1  0  0  0  0
  9 13  1  0  0  0  0
 10 11  1  0  0  0  0
 10 32  1  0  0  0  0
 10 33  1  0  0  0  0
 11 12  1  0  0  0  0
 11 34  1  0  0  0  0
 11 35  1  0  0  0  0
 12 13  1  0  0  0  0
 12 36  1  0  0  0  0
 12 37  1  0  0  0  0
 13 38  1  0  0  0  0
 13 39  1  0  0  0  0
 14 15  1  0  0  0  0
 14 16  1  0  0  0  0
 15 40  1  0  0  0  0
 15 41  1  0  0  0  0
 15 42  1  0  0  0  0
 16 17  1  0  0  0  0
 16 18  1  0  0  0  0
 17 43  1  0  0  0  0
 17 44  1  0  0  0  0
 17 45  1  0  0  0  0
 18 19  2  0  0  0  0
 18 46  1  0  0  0  0
 19 20  1  0  0  0  0
 19 21  1  0  0  0  0
 20 47  1  0  0  0  0
 20 48  1  0  0  0  0
 20 49  1  0  0  0  0
 21 22  2  0  0  0  0
M  END
$$$$
