
 OpenBabel04232216463D

 65 67  0  0  0  0  0  0  0  0999 V2000
    3.3895   -3.1087    5.4662 C   0  0  0  0  0  0  0  0  0  0  0  0
    4.3984   -3.0518    4.2716 C   0  0  0  0  0  0  0  0  0  0  0  0
    3.5486   -2.6754    3.2188 C   0  0  0  0  0  0  0  0  0  0  0  0
    3.2032   -2.4114    1.7094 C   0  0  0  0  0  0  0  0  0  0  0  0
    1.8778   -1.5829    1.5145 C   0  0  0  0  0  0  0  0  0  0  0  0
    1.3575   -0.8753    0.2489 C   0  0  0  0  0  0  0  0  0  0  0  0
    1.9855    0.4699   -0.1304 C   0  0  0  0  0  0  0  0  0  0  0  0
    3.3668    0.3607   -0.7564 C   0  0  0  0  0  0  0  0  0  0  0  0
    3.3707   -0.3894   -2.0942 C   0  0  0  0  0  0  0  0  0  0  0  0
    4.8077   -0.5689   -2.5706 C   0  0  0  0  0  0  0  0  0  0  0  0
    4.9088   -1.3564   -3.8752 C   0  0  0  0  0  0  0  0  0  0  0  0
    6.3793   -1.5199   -4.2635 C   0  0  0  0  0  0  0  0  0  0  0  0
    6.5488   -2.2966   -5.5581 C   0  0  0  0  0  0  0  0  0  0  0  0
    3.7441   -3.0633    0.7228 N   0  0  0  0  0  0  0  0  0  0  0  0
    4.9093   -3.6518    1.1364 C   0  0  0  0  0  0  0  0  0  0  0  0
    5.0563   -4.5998    2.1090 C   0  0  0  0  0  0  0  0  0  0  0  0
    4.1909   -5.6703    2.6971 C   0  0  0  0  0  0  0  0  0  0  0  0
    6.1658   -4.3021    2.9846 C   0  0  0  0  0  0  0  0  0  0  0  0
    7.2782   -4.7037    2.4064 C   0  0  0  0  0  0  0  0  0  0  0  0
    8.5237   -4.0220    2.5186 C   0  0  0  0  0  0  0  0  0  0  0  0
    9.5168   -4.8452    2.7372 C   0  0  0  0  0  0  0  0  0  0  0  0
   10.2315   -4.4221    3.8640 C   0  0  0  0  0  0  0  0  0  0  0  0
    9.6652   -4.4071    5.0932 C   0  0  0  0  0  0  0  0  0  0  0  0
   10.8185   -4.7951    5.9840 C   0  0  0  0  0  0  0  0  0  0  0  0
   10.8138   -5.9850    6.5662 C   0  0  0  0  0  0  0  0  0  0  0  0
    9.5662   -6.6104    6.8334 C   0  0  0  0  0  0  0  0  0  0  0  0
    8.3557   -6.0298    6.5194 C   0  0  0  0  0  0  0  0  0  0  0  0
    8.0911   -4.7670    5.5607 C   0  0  0  0  0  0  0  0  0  0  0  0
    6.7740   -4.4165    5.3902 N   0  0  0  0  0  0  0  0  0  0  0  0
    5.9459   -3.6141    4.2183 N   0  0  0  0  0  0  0  0  0  0  0  0
    2.5210   -2.4246    5.2542 H   0  0  0  0  0  0  0  0  0  0  0  0
    3.6795   -2.7126    6.4317 H   0  0  0  0  0  0  0  0  0  0  0  0
    2.8669   -4.0772    5.5152 H   0  0  0  0  0  0  0  0  0  0  0  0
    2.4891   -2.8228    3.4754 H   0  0  0  0  0  0  0  0  0  0  0  0
    1.8305   -0.8555    2.3340 H   0  0  0  0  0  0  0  0  0  0  0  0
    1.0972   -2.3296    1.7236 H   0  0  0  0  0  0  0  0  0  0  0  0
    0.3039   -0.6270    0.4638 H   0  0  0  0  0  0  0  0  0  0  0  0
    1.3096   -1.5510   -0.6082 H   0  0  0  0  0  0  0  0  0  0  0  0
    2.0290    1.1245    0.7498 H   0  0  0  0  0  0  0  0  0  0  0  0
    1.3222    0.9836   -0.8434 H   0  0  0  0  0  0  0  0  0  0  0  0
    4.0473   -0.1220   -0.0482 H   0  0  0  0  0  0  0  0  0  0  0  0
    3.7532    1.3752   -0.9215 H   0  0  0  0  0  0  0  0  0  0  0  0
    2.7851    0.1654   -2.8383 H   0  0  0  0  0  0  0  0  0  0  0  0
    2.9098   -1.3764   -1.9929 H   0  0  0  0  0  0  0  0  0  0  0  0
    5.3712   -1.0980   -1.7923 H   0  0  0  0  0  0  0  0  0  0  0  0
    5.2736    0.4155   -2.6964 H   0  0  0  0  0  0  0  0  0  0  0  0
    4.3642   -0.8358   -4.6719 H   0  0  0  0  0  0  0  0  0  0  0  0
    4.4454   -2.3434   -3.7538 H   0  0  0  0  0  0  0  0  0  0  0  0
    6.9141   -2.0388   -3.4589 H   0  0  0  0  0  0  0  0  0  0  0  0
    6.8415   -0.5313   -4.3700 H   0  0  0  0  0  0  0  0  0  0  0  0
    6.1283   -3.3030   -5.4694 H   0  0  0  0  0  0  0  0  0  0  0  0
    7.6104   -2.3954   -5.8083 H   0  0  0  0  0  0  0  0  0  0  0  0
    6.0520   -1.7867   -6.3891 H   0  0  0  0  0  0  0  0  0  0  0  0
    5.7569   -2.9940    0.9200 H   0  0  0  0  0  0  0  0  0  0  0  0
    3.1347   -5.5653    2.4581 H   0  0  0  0  0  0  0  0  0  0  0  0
    4.2801   -5.6927    3.7942 H   0  0  0  0  0  0  0  0  0  0  0  0
    4.5658   -6.6438    2.3648 H   0  0  0  0  0  0  0  0  0  0  0  0
    7.2382   -5.6352    1.8600 H   0  0  0  0  0  0  0  0  0  0  0  0
    8.4874   -2.9943    2.8898 H   0  0  0  0  0  0  0  0  0  0  0  0
    9.4680   -5.9375    2.5586 H   0  0  0  0  0  0  0  0  0  0  0  0
   11.2938   -4.3921    3.6676 H   0  0  0  0  0  0  0  0  0  0  0  0
   11.8099   -4.3478    5.7815 H   0  0  0  0  0  0  0  0  0  0  0  0
   11.7409   -6.4815    6.8618 H   0  0  0  0  0  0  0  0  0  0  0  0
    9.6084   -7.5347    7.3852 H   0  0  0  0  0  0  0  0  0  0  0  0
    7.4602   -6.5348    6.8367 H   0  0  0  0  0  0  0  0  0  0  0  0
  1  2  1  0  0  0  0
  1 31  1  0  0  0  0
  1 32  1  0  0  0  0
  1 33  1  0  0  0  0
  2  3  2  0  0  0  0
  2 30  1  0  0  0  0
  3  4  1  0  0  0  0
  3 34  1  0  0  0  0
  4  5  1  0  0  0  0
  4 14  2  0  0  0  0
  5  6  1  0  0  0  0
  5 35  1  0  0  0  0
  5 36  1  0  0  0  0
  6  7  1  0  0  0  0
  6 37  1  0  0  0  0
  6 38  1  0  0  0  0
  7  8  1  0  0  0  0
  7 39  1  0  0  0  0
  7 40  1  0  0  0  0
  8  9  1  0  0  0  0
  8 41  1  0  0  0  0
  8 42  1  0  0  0  0
  9 10  1  0  0  0  0
  9 43  1  0  0  0  0
  9 44  1  0  0  0  0
 10 11  1  0  0  0  0
 10 45  1  0  0  0  0
 10 46  1  0  0  0  0
 11 12  1  0  0  0  0
 11 47  1  0  0  0  0
 11 48  1  0  0  0  0
 12 13  1  0  0  0  0
 12 49  1  0  0  0  0
 12 50  1  0  0  0  0
 13 51  1  0  0  0  0
 13 52  1  0  0  0  0
 13 53  1  0  0  0  0
 14 15  1  0  0  0  0
 15 16  2  0  0  0  0
 15 54  1  0  0  0  0
 16 17  1  0  0  0  0
 16 18  1  0  0  0  0
 17 55  1  0  0  0  0
 17 56  1  0  0  0  0
 17 57  1  0  0  0  0
 18 19  2  0  0  0  0
 18 30  1  0  0  0  0
 19 20  1  0  0  0  0
 19 58  1  0  0  0  0
 20 21  2  0  0  0  0
 20 59  1  0  0  0  0
 21 22  1  0  0  0  0
 21 60  1  0  0  0  0
 22 23  2  0  0  0  0
 22 61  1  0  0  0  0
 23 24  1  0  0  0  0
 23 28  1  0  0  0  0
 24 25  2  0  0  0  0
 24 62  1  0  0  0  0
 25 26  1  0  0  0  0
 25 63  1  0  0  0  0
 26 27  2  0  0  0  0
 26 64  1  0  0  0  0
 27 28  1  0  0  0  0
 27 65  1  0  0  0  0
 28 29  2  0  0  0  0
 29 30  1  0  0  0  0
M  END
$$$$
