
 OpenBabel04232216533D

 54 56  0  0  0  0  0  0  0  0999 V2000
    3.4722   -4.7546   -4.6404 C   0  0  0  0  0  0  0  0  0  0  0  0
    4.6587   -4.3521   -5.5066 C   0  0  0  0  0  0  0  0  0  0  0  0
    4.7799   -2.8505   -5.7838 C   0  0  0  0  0  0  0  0  0  0  0  0
    5.0979   -1.9486   -4.5879 C   0  0  0  0  0  0  0  0  0  0  0  0
    6.4503   -2.1732   -3.8847 C   0  0  0  0  0  0  0  0  0  0  0  0
    7.6118   -1.5532   -4.5175 N   0  0  0  0  0  0  0  0  0  0  0  0
    7.8000   -0.1956   -4.4770 C   0  0  0  0  0  0  0  0  0  0  0  0
    6.9202    0.6616   -4.4312 O   0  0  0  0  0  0  0  0  0  0  0  0
    9.1936    0.1801   -4.0194 C   0  0  0  0  0  0  0  0  0  0  0  0
    9.4247    0.1226   -2.5034 C   0  0  0  0  0  0  0  0  0  0  0  0
   10.9265    0.1295   -2.1482 C   0  0  0  0  0  0  0  0  0  0  0  0
   11.5887    1.5051   -2.2665 C   0  0  0  0  0  0  0  0  0  0  0  0
   10.7685    2.6388   -1.6600 C   0  0  0  0  0  0  0  0  0  0  0  0
    9.2748    2.5780   -1.9687 C   0  0  0  0  0  0  0  0  0  0  0  0
    8.6810    1.1971   -1.7291 C   0  0  0  0  0  0  0  0  0  0  0  0
   10.2466    0.3744   -4.7329 N   0  0  0  0  0  0  0  0  0  0  0  0
   10.4700    0.1746   -6.0568 C   0  0  0  0  0  0  0  0  0  0  0  0
   11.9667    0.3818   -6.2819 C   0  0  0  0  0  0  0  0  0  0  0  0
    9.9021   -0.7369   -6.8810 C   0  0  0  0  0  0  0  0  0  0  0  0
   10.1961   -0.8378   -8.3516 C   0  0  0  0  0  0  0  0  0  0  0  0
    9.3483   -1.9656   -6.2658 C   0  0  0  0  0  0  0  0  0  0  0  0
   10.1187   -3.1591   -6.0760 C   0  0  0  0  0  0  0  0  0  0  0  0
    9.4174   -3.4113   -4.9541 C   0  0  0  0  0  0  0  0  0  0  0  0
    8.5604   -2.2890   -5.2205 C   0  0  0  0  0  0  0  0  0  0  0  0
    3.4053   -5.8482   -4.5937 H   0  0  0  0  0  0  0  0  0  0  0  0
    2.5284   -4.3863   -5.0558 H   0  0  0  0  0  0  0  0  0  0  0  0
    3.5714   -4.3853   -3.6161 H   0  0  0  0  0  0  0  0  0  0  0  0
    4.5443   -4.8580   -6.4734 H   0  0  0  0  0  0  0  0  0  0  0  0
    5.5817   -4.7364   -5.0626 H   0  0  0  0  0  0  0  0  0  0  0  0
    3.8319   -2.5065   -6.2206 H   0  0  0  0  0  0  0  0  0  0  0  0
    5.5433   -2.6985   -6.5545 H   0  0  0  0  0  0  0  0  0  0  0  0
    4.2976   -2.0632   -3.8455 H   0  0  0  0  0  0  0  0  0  0  0  0
    5.0308   -0.9105   -4.9346 H   0  0  0  0  0  0  0  0  0  0  0  0
    6.6354   -3.2348   -3.6876 H   0  0  0  0  0  0  0  0  0  0  0  0
    6.3660   -1.6901   -2.9008 H   0  0  0  0  0  0  0  0  0  0  0  0
    9.0350   -0.8580   -2.1974 H   0  0  0  0  0  0  0  0  0  0  0  0
   11.4759   -0.5858   -2.7768 H   0  0  0  0  0  0  0  0  0  0  0  0
   11.0420   -0.2298   -1.1198 H   0  0  0  0  0  0  0  0  0  0  0  0
   11.7998    1.7406   -3.3159 H   0  0  0  0  0  0  0  0  0  0  0  0
   12.5701    1.4675   -1.7774 H   0  0  0  0  0  0  0  0  0  0  0  0
   11.1665    3.5967   -2.0164 H   0  0  0  0  0  0  0  0  0  0  0  0
   10.9078    2.6280   -0.5733 H   0  0  0  0  0  0  0  0  0  0  0  0
    9.0978    2.8786   -3.0080 H   0  0  0  0  0  0  0  0  0  0  0  0
    8.7503    3.3046   -1.3377 H   0  0  0  0  0  0  0  0  0  0  0  0
    7.6169    1.2022   -1.9867 H   0  0  0  0  0  0  0  0  0  0  0  0
    8.7402    0.9580   -0.6594 H   0  0  0  0  0  0  0  0  0  0  0  0
   12.4848    0.0262   -5.3731 H   0  0  0  0  0  0  0  0  0  0  0  0
   12.2388    1.4247   -6.4325 H   0  0  0  0  0  0  0  0  0  0  0  0
   12.3763   -0.2450   -7.0784 H   0  0  0  0  0  0  0  0  0  0  0  0
    9.2567   -0.9589   -8.9026 H   0  0  0  0  0  0  0  0  0  0  0  0
   10.8486   -1.6889   -8.5755 H   0  0  0  0  0  0  0  0  0  0  0  0
   10.6662    0.0746   -8.7329 H   0  0  0  0  0  0  0  0  0  0  0  0
   11.0125   -3.5452   -6.5474 H   0  0  0  0  0  0  0  0  0  0  0  0
    9.5797   -4.0800   -4.1128 H   0  0  0  0  0  0  0  0  0  0  0  0
  1  2  1  0  0  0  0
  1 25  1  0  0  0  0
  1 26  1  0  0  0  0
  1 27  1  0  0  0  0
  2  3  1  0  0  0  0
  2 28  1  0  0  0  0
  2 29  1  0  0  0  0
  3  4  1  0  0  0  0
  3 30  1  0  0  0  0
  3 31  1  0  0  0  0
  4  5  1  0  0  0  0
  4 32  1  0  0  0  0
  4 33  1  0  0  0  0
  5  6  1  0  0  0  0
  5 34  1  0  0  0  0
  5 35  1  0  0  0  0
  6  7  1  0  0  0  0
  6 24  1  0  0  0  0
  7  8  2  0  0  0  0
  7  9  1  0  0  0  0
  9 10  1  0  0  0  0
  9 16  2  0  0  0  0
 10 11  1  0  0  0  0
 10 15  1  0  0  0  0
 10 36  1  0  0  0  0
 11 12  1  0  0  0  0
 11 37  1  0  0  0  0
 11 38  1  0  0  0  0
 12 13  1  0  0  0  0
 12 39  1  0  0  0  0
 12 40  1  0  0  0  0
 13 14  1  0  0  0  0
 13 41  1  0  0  0  0
 13 42  1  0  0  0  0
 14 15  1  0  0  0  0
 14 43  1  0  0  0  0
 14 44  1  0  0  0  0
 15 45  1  0  0  0  0
 15 46  1  0  0  0  0
 16 17  1  0  0  0  0
 17 18  1  0  0  0  0
 17 19  2  0  0  0  0
 18 47  1  0  0  0  0
 18 48  1  0  0  0  0
 18 49  1  0  0  0  0
 19 20  1  0  0  0  0
 19 21  1  0  0  0  0
 20 50  1  0  0  0  0
 20 51  1  0  0  0  0
 20 52  1  0  0  0  0
 21 22  1  0  0  0  0
 21 24  2  0  0  0  0
 22 23  2  0  0  0  0
 22 53  1  0  0  0  0
 23 24  1  0  0  0  0
 23 54  1  0  0  0  0
M  END
$$$$
