
 OpenBabel04232217003D

235234  0  0  1  0  0  0  0  0999 V2000
    2.8041   -0.3289   -1.3361 O   0  0  0  0  0  0  0  0  0  0  0  0
    2.3529    0.0509   -0.0389 C   0  0  3  0  0  0  0  0  0  0  0  0
    0.8276    0.0708   -0.0310 C   0  0  0  0  0  0  0  0  0  0  0  0
    0.2738    0.4776    1.3298 C   0  0  0  0  0  0  0  0  0  0  0  0
   -1.2384    0.4811    1.3259 C   0  0  0  0  0  0  0  0  0  0  0  0
   -1.7162    0.8359    2.6144 O   0  0  0  0  0  0  0  0  0  0  0  0
    2.8899   -0.9557    0.9723 C   0  0  0  0  0  0  0  0  0  0  0  0
    4.4057   -0.9653    0.9855 C   0  0  0  0  0  0  0  0  0  0  0  0
    4.9067   -1.9700    2.0055 C   0  0  0  0  0  0  0  0  0  0  0  0
    6.4208   -1.9718    2.0027 C   0  0  0  0  0  0  0  0  0  0  0  0
    6.9316   -2.9739    3.0162 C   0  0  0  0  0  0  0  0  0  0  0  0
    8.4472   -2.9773    3.0179 C   0  0  0  0  0  0  0  0  0  0  0  0
    8.9564   -3.9806    4.0332 C   0  0  0  0  0  0  0  0  0  0  0  0
   10.4725   -3.9837    4.0363 C   0  0  0  0  0  0  0  0  0  0  0  0
   10.9824   -4.9891    5.0504 C   0  0  0  0  0  0  0  0  0  0  0  0
   12.4988   -4.9925    5.0538 C   0  0  0  0  0  0  0  0  0  0  0  0
   13.0089   -5.9967    6.0693 C   0  0  0  0  0  0  0  0  0  0  0  0
   14.5253   -6.0015    6.0713 C   0  0  0  0  0  0  0  0  0  0  0  0
   15.0354   -7.0071    7.0854 C   0  0  0  0  0  0  0  0  0  0  0  0
   16.5520   -7.0132    7.0862 C   0  0  0  0  0  0  0  0  0  0  0  0
   17.0621   -8.0204    8.0989 C   0  0  0  0  0  0  0  0  0  0  0  0
   18.5787   -8.0255    8.1007 C   0  0  0  0  0  0  0  0  0  0  0  0
   19.0886   -9.0338    9.1120 C   0  0  0  0  0  0  0  0  0  0  0  0
   20.6052   -9.0399    9.1128 C   0  0  0  0  0  0  0  0  0  0  0  0
   21.1154  -10.0471   10.1253 C   0  0  0  0  0  0  0  0  0  0  0  0
   22.6318  -10.0535   10.1260 C   0  0  0  0  0  0  0  0  0  0  0  0
   23.1420  -11.0618   11.1373 C   0  0  0  0  0  0  0  0  0  0  0  0
   24.6584  -11.0683   11.1380 C   0  0  0  0  0  0  0  0  0  0  0  0
   25.1687  -12.0767   12.1491 C   0  0  0  0  0  0  0  0  0  0  0  0
   26.6851  -12.0830   12.1499 C   0  0  0  0  0  0  0  0  0  0  0  0
   27.1953  -13.0914   13.1611 C   0  0  0  0  0  0  0  0  0  0  0  0
   28.7118  -13.0965   13.1631 C   0  0  0  0  0  0  0  0  0  0  0  0
   29.2220  -14.1049   14.1743 C   0  0  0  0  0  0  0  0  0  0  0  0
   30.7385  -14.1098   14.1764 C   0  0  0  0  0  0  0  0  0  0  0  0
   31.2487  -15.1181   15.1876 C   0  0  0  0  0  0  0  0  0  0  0  0
   32.7651  -15.1229   15.1899 C   0  0  0  0  0  0  0  0  0  0  0  0
   33.2753  -16.1302   16.2024 C   0  0  0  0  0  0  0  0  0  0  0  0
   34.7916  -16.1337   16.2061 C   0  0  0  0  0  0  0  0  0  0  0  0
   35.3019  -17.1419   17.2173 C   0  0  0  0  0  0  0  0  0  0  0  0
   36.8184  -17.1442   17.2220 C   0  0  0  0  0  0  0  0  0  0  0  0
   37.3287  -18.1538   18.2319 C   0  0  0  0  0  0  0  0  0  0  0  0
   38.8451  -18.1573   18.2356 C   0  0  0  0  0  0  0  0  0  0  0  0
   39.3553  -19.1672   19.2453 C   0  0  0  0  0  0  0  0  0  0  0  0
   40.8717  -19.1708   19.2489 C   0  0  0  0  0  0  0  0  0  0  0  0
   41.3820  -20.1806   20.2586 C   0  0  0  0  0  0  0  0  0  0  0  0
   42.8984  -20.1839   20.2623 C   0  0  0  0  0  0  0  0  0  0  0  0
   43.4086  -21.1939   21.2718 C   0  0  0  0  0  0  0  0  0  0  0  0
   44.9251  -21.1961   21.2767 C   0  0  0  0  0  0  0  0  0  0  0  0
   45.4353  -22.2073   22.2853 C   0  0  0  0  0  0  0  0  0  0  0  0
   46.9517  -22.2106   22.2889 C   0  0  0  0  0  0  0  0  0  0  0  0
   47.4619  -23.2208   23.2985 C   0  0  0  0  0  0  0  0  0  0  0  0
   48.9784  -23.2242   23.3020 C   0  0  0  0  0  0  0  0  0  0  0  0
   49.4886  -24.2354   24.3105 C   0  0  0  0  0  0  0  0  0  0  0  0
   51.0049  -24.2376   24.3155 C   0  0  0  0  0  0  0  0  0  0  0  0
   51.5152  -25.2475   25.3251 C   0  0  0  0  0  0  0  0  0  0  0  0
   53.0317  -25.2481   25.3315 C   0  0  0  0  0  0  0  0  0  0  0  0
   53.5419  -26.2578   26.3414 C   0  0  0  0  0  0  0  0  0  0  0  0
   55.0584  -26.2571   26.3491 C   0  0  0  0  0  0  0  0  0  0  0  0
   55.5685  -27.2669   27.3590 C   0  0  0  0  0  0  0  0  0  0  0  0
   57.0850  -27.2662   27.3669 C   0  0  0  0  0  0  0  0  0  0  0  0
   57.5952  -28.2759   28.3766 C   0  0  0  0  0  0  0  0  0  0  0  0
   59.1116  -28.2752   28.3845 C   0  0  0  0  0  0  0  0  0  0  0  0
   59.6219  -29.2850   29.3942 C   0  0  0  0  0  0  0  0  0  0  0  0
   61.1383  -29.2842   29.4021 C   0  0  0  0  0  0  0  0  0  0  0  0
   61.6485  -30.2940   30.4119 C   0  0  0  0  0  0  0  0  0  0  0  0
   63.1649  -30.2934   30.4197 C   0  0  0  0  0  0  0  0  0  0  0  0
   63.6752  -31.3032   31.4294 C   0  0  0  0  0  0  0  0  0  0  0  0
   65.1916  -31.3038   31.4359 C   0  0  0  0  0  0  0  0  0  0  0  0
   65.7019  -32.3137   32.4457 C   0  0  0  0  0  0  0  0  0  0  0  0
   67.2183  -32.3144   32.4521 C   0  0  0  0  0  0  0  0  0  0  0  0
   67.7286  -33.3243   33.4620 C   0  0  0  0  0  0  0  0  0  0  0  0
   69.2452  -33.3249   33.4683 C   0  0  0  0  0  0  0  0  0  0  0  0
   69.7557  -34.3349   34.4783 C   0  0  0  0  0  0  0  0  0  0  0  0
   71.2727  -34.3372   34.4835 C   0  0  0  0  0  0  0  0  0  0  0  0
   71.7844  -35.3474   35.4936 C   0  0  0  0  0  0  0  0  0  0  0  0
   73.3031  -35.3502   35.4992 C   0  0  0  0  0  0  0  0  0  0  0  0
   73.8161  -36.3627   36.5089 C   0  0  0  0  0  0  0  0  0  0  0  0
   75.3421  -36.3776   36.5238 C   0  0  0  0  0  0  0  0  0  0  0  0
   75.8448  -37.3851   37.5284 C   0  0  0  0  0  0  0  0  0  0  0  0
    2.5105    0.3537   -1.9638 H   0  0  0  0  0  0  0  0  0  0  0  0
    2.7476    1.0504    0.1799 H   0  0  0  0  0  0  0  0  0  0  0  0
    0.4473   -0.9218   -0.3073 H   0  0  0  0  0  0  0  0  0  0  0  0
    0.4674    0.7546   -0.8090 H   0  0  0  0  0  0  0  0  0  0  0  0
    0.6601    1.4635    1.6198 H   0  0  0  0  0  0  0  0  0  0  0  0
    0.6021   -0.2151    2.1125 H   0  0  0  0  0  0  0  0  0  0  0  0
   -1.6290   -0.5083    1.0649 H   0  0  0  0  0  0  0  0  0  0  0  0
   -1.6118    1.2071    0.5963 H   0  0  0  0  0  0  0  0  0  0  0  0
   -1.3866    0.1778    3.2488 H   0  0  0  0  0  0  0  0  0  0  0  0
    2.5173   -1.9589    0.7283 H   0  0  0  0  0  0  0  0  0  0  0  0
    2.5504   -0.7166    1.9848 H   0  0  0  0  0  0  0  0  0  0  0  0
    4.7779    0.0352    1.2412 H   0  0  0  0  0  0  0  0  0  0  0  0
    4.7938   -1.2179   -0.0074 H   0  0  0  0  0  0  0  0  0  0  0  0
    4.5243   -2.9710    1.7683 H   0  0  0  0  0  0  0  0  0  0  0  0
    4.5341   -1.7060    3.0043 H   0  0  0  0  0  0  0  0  0  0  0  0
    6.7978   -0.9694    2.2433 H   0  0  0  0  0  0  0  0  0  0  0  0
    6.7942   -2.2255    1.0023 H   0  0  0  0  0  0  0  0  0  0  0  0
    6.5543   -3.9753    2.7732 H   0  0  0  0  0  0  0  0  0  0  0  0
    6.5564   -2.7189    4.0155 H   0  0  0  0  0  0  0  0  0  0  0  0
    8.8228   -1.9749    3.2599 H   0  0  0  0  0  0  0  0  0  0  0  0
    8.8211   -3.2315    2.0183 H   0  0  0  0  0  0  0  0  0  0  0  0
    8.5802   -4.9817    3.7897 H   0  0  0  0  0  0  0  0  0  0  0  0
    8.5804   -3.7257    5.0316 H   0  0  0  0  0  0  0  0  0  0  0  0
   10.8478   -2.9823    4.2808 H   0  0  0  0  0  0  0  0  0  0  0  0
   10.8479   -4.2368    3.0370 H   0  0  0  0  0  0  0  0  0  0  0  0
   10.6066   -5.9903    4.8057 H   0  0  0  0  0  0  0  0  0  0  0  0
   10.6065   -4.7358    6.0494 H   0  0  0  0  0  0  0  0  0  0  0  0
   12.8744   -3.9909    5.2971 H   0  0  0  0  0  0  0  0  0  0  0  0
   12.8741   -5.2470    4.0550 H   0  0  0  0  0  0  0  0  0  0  0  0
   12.6320   -6.9979    5.8267 H   0  0  0  0  0  0  0  0  0  0  0  0
   12.6344   -5.7413    7.0682 H   0  0  0  0  0  0  0  0  0  0  0  0
   14.9021   -5.0006    6.3151 H   0  0  0  0  0  0  0  0  0  0  0  0
   14.8997   -6.2555    5.0720 H   0  0  0  0  0  0  0  0  0  0  0  0
   14.6576   -8.0078    6.8422 H   0  0  0  0  0  0  0  0  0  0  0  0
   14.6621   -6.7524    8.0849 H   0  0  0  0  0  0  0  0  0  0  0  0
   16.9298   -6.0127    7.3306 H   0  0  0  0  0  0  0  0  0  0  0  0
   16.9253   -7.2667    6.0864 H   0  0  0  0  0  0  0  0  0  0  0  0
   16.6851   -9.0208    7.8535 H   0  0  0  0  0  0  0  0  0  0  0  0
   16.6878   -7.7677    9.0986 H   0  0  0  0  0  0  0  0  0  0  0  0
   18.9554   -7.0252    8.3471 H   0  0  0  0  0  0  0  0  0  0  0  0
   18.9529   -8.2768    7.1006 H   0  0  0  0  0  0  0  0  0  0  0  0
   18.7109  -10.0337    8.8664 H   0  0  0  0  0  0  0  0  0  0  0  0
   18.7153   -8.7816   10.1122 H   0  0  0  0  0  0  0  0  0  0  0  0
   20.9833   -8.0395    9.3574 H   0  0  0  0  0  0  0  0  0  0  0  0
   20.9784   -9.2932    8.1129 H   0  0  0  0  0  0  0  0  0  0  0  0
   20.7373  -11.0474    9.8807 H   0  0  0  0  0  0  0  0  0  0  0  0
   20.7421   -9.7940   11.1252 H   0  0  0  0  0  0  0  0  0  0  0  0
   23.0098   -9.0535   10.3717 H   0  0  0  0  0  0  0  0  0  0  0  0
   23.0051  -10.3056    9.1257 H   0  0  0  0  0  0  0  0  0  0  0  0
   22.7640  -12.0618   10.8916 H   0  0  0  0  0  0  0  0  0  0  0  0
   22.7687  -10.8098   12.1375 H   0  0  0  0  0  0  0  0  0  0  0  0
   25.0365  -10.0683   11.3838 H   0  0  0  0  0  0  0  0  0  0  0  0
   25.0317  -11.3202   10.1377 H   0  0  0  0  0  0  0  0  0  0  0  0
   24.7907  -13.0768   11.9032 H   0  0  0  0  0  0  0  0  0  0  0  0
   24.7953  -11.8248   13.1493 H   0  0  0  0  0  0  0  0  0  0  0  0
   27.0630  -11.0830   12.3957 H   0  0  0  0  0  0  0  0  0  0  0  0
   27.0585  -12.3349   11.1497 H   0  0  0  0  0  0  0  0  0  0  0  0
   26.8184  -14.0916   12.9145 H   0  0  0  0  0  0  0  0  0  0  0  0
   26.8210  -12.8402   14.1611 H   0  0  0  0  0  0  0  0  0  0  0  0
   29.0887  -12.0963   13.4097 H   0  0  0  0  0  0  0  0  0  0  0  0
   29.0862  -13.3476   12.1630 H   0  0  0  0  0  0  0  0  0  0  0  0
   28.8451  -15.1051   13.9277 H   0  0  0  0  0  0  0  0  0  0  0  0
   28.8476  -13.8537   15.1743 H   0  0  0  0  0  0  0  0  0  0  0  0
   31.1152  -13.1096   14.4230 H   0  0  0  0  0  0  0  0  0  0  0  0
   31.1129  -14.3610   13.1763 H   0  0  0  0  0  0  0  0  0  0  0  0
   30.8719  -16.1184   14.9411 H   0  0  0  0  0  0  0  0  0  0  0  0
   30.8741  -14.8669   16.1876 H   0  0  0  0  0  0  0  0  0  0  0  0
   33.1419  -14.1224   15.4354 H   0  0  0  0  0  0  0  0  0  0  0  0
   33.1396  -15.3753   14.1902 H   0  0  0  0  0  0  0  0  0  0  0  0
   32.8995  -17.1310   15.9561 H   0  0  0  0  0  0  0  0  0  0  0  0
   32.8997  -15.8786   17.2019 H   0  0  0  0  0  0  0  0  0  0  0  0
   35.1672  -15.1331   16.4535 H   0  0  0  0  0  0  0  0  0  0  0  0
   35.1675  -16.3840   15.2063 H   0  0  0  0  0  0  0  0  0  0  0  0
   34.9273  -18.1426   16.9691 H   0  0  0  0  0  0  0  0  0  0  0  0
   34.9253  -16.8924   18.2170 H   0  0  0  0  0  0  0  0  0  0  0  0
   37.1930  -16.1438   17.4716 H   0  0  0  0  0  0  0  0  0  0  0  0
   37.1951  -17.3924   16.2221 H   0  0  0  0  0  0  0  0  0  0  0  0
   36.9531  -19.1540   17.9831 H   0  0  0  0  0  0  0  0  0  0  0  0
   36.9529  -17.9049   19.2321 H   0  0  0  0  0  0  0  0  0  0  0  0
   39.2207  -17.1571   18.4845 H   0  0  0  0  0  0  0  0  0  0  0  0
   39.2207  -18.4061   17.2355 H   0  0  0  0  0  0  0  0  0  0  0  0
   38.9796  -20.1673   18.9964 H   0  0  0  0  0  0  0  0  0  0  0  0
   38.9796  -18.9183   20.2455 H   0  0  0  0  0  0  0  0  0  0  0  0
   41.2474  -18.1707   19.4977 H   0  0  0  0  0  0  0  0  0  0  0  0
   41.2473  -19.4197   18.2487 H   0  0  0  0  0  0  0  0  0  0  0  0
   41.0064  -21.1808   20.0097 H   0  0  0  0  0  0  0  0  0  0  0  0
   41.0062  -19.9318   21.2587 H   0  0  0  0  0  0  0  0  0  0  0  0
   43.2740  -19.1837   20.5112 H   0  0  0  0  0  0  0  0  0  0  0  0
   43.2741  -20.4328   19.2622 H   0  0  0  0  0  0  0  0  0  0  0  0
   43.0340  -22.1941   21.0222 H   0  0  0  0  0  0  0  0  0  0  0  0
   43.0320  -20.9459   22.2720 H   0  0  0  0  0  0  0  0  0  0  0  0
   45.2996  -20.1961   21.5277 H   0  0  0  0  0  0  0  0  0  0  0  0
   45.3019  -21.4429   20.2764 H   0  0  0  0  0  0  0  0  0  0  0  0
   45.0598  -23.2070   22.0351 H   0  0  0  0  0  0  0  0  0  0  0  0
   45.0595  -21.9596   23.2857 H   0  0  0  0  0  0  0  0  0  0  0  0
   47.3274  -21.2105   22.5380 H   0  0  0  0  0  0  0  0  0  0  0  0
   47.3273  -22.4594   21.2887 H   0  0  0  0  0  0  0  0  0  0  0  0
   47.0862  -24.2209   23.0494 H   0  0  0  0  0  0  0  0  0  0  0  0
   47.0863  -22.9720   24.2987 H   0  0  0  0  0  0  0  0  0  0  0  0
   49.3538  -22.2244   23.5522 H   0  0  0  0  0  0  0  0  0  0  0  0
   49.3541  -23.4718   22.3016 H   0  0  0  0  0  0  0  0  0  0  0  0
   49.1141  -25.2354   24.0596 H   0  0  0  0  0  0  0  0  0  0  0  0
   49.1118  -23.9885   25.3108 H   0  0  0  0  0  0  0  0  0  0  0  0
   51.3795  -23.2372   24.5653 H   0  0  0  0  0  0  0  0  0  0  0  0
   51.3818  -24.4854   23.3155 H   0  0  0  0  0  0  0  0  0  0  0  0
   51.1419  -26.2481   25.0745 H   0  0  0  0  0  0  0  0  0  0  0  0
   51.1373  -25.0003   26.3248 H   0  0  0  0  0  0  0  0  0  0  0  0
   53.4049  -24.2475   25.5821 H   0  0  0  0  0  0  0  0  0  0  0  0
   53.4097  -25.4953   24.3319 H   0  0  0  0  0  0  0  0  0  0  0  0
   53.1697  -27.2586   26.0901 H   0  0  0  0  0  0  0  0  0  0  0  0
   53.1629  -26.0114   27.3408 H   0  0  0  0  0  0  0  0  0  0  0  0
   55.4305  -25.2563   26.6005 H   0  0  0  0  0  0  0  0  0  0  0  0
   55.4375  -26.5036   25.3497 H   0  0  0  0  0  0  0  0  0  0  0  0
   55.1964  -28.2678   27.1076 H   0  0  0  0  0  0  0  0  0  0  0  0
   55.1894  -27.0205   28.3584 H   0  0  0  0  0  0  0  0  0  0  0  0
   57.4571  -26.2653   27.6182 H   0  0  0  0  0  0  0  0  0  0  0  0
   57.4642  -27.5125   26.3674 H   0  0  0  0  0  0  0  0  0  0  0  0
   57.2231  -29.2768   28.1253 H   0  0  0  0  0  0  0  0  0  0  0  0
   57.2160  -28.0296   29.3761 H   0  0  0  0  0  0  0  0  0  0  0  0
   59.4837  -27.2744   28.6358 H   0  0  0  0  0  0  0  0  0  0  0  0
   59.4908  -28.5216   27.3850 H   0  0  0  0  0  0  0  0  0  0  0  0
   59.2498  -30.2858   29.1429 H   0  0  0  0  0  0  0  0  0  0  0  0
   59.2427  -29.0386   30.3937 H   0  0  0  0  0  0  0  0  0  0  0  0
   61.5104  -28.2834   29.6535 H   0  0  0  0  0  0  0  0  0  0  0  0
   61.5174  -29.5306   28.4027 H   0  0  0  0  0  0  0  0  0  0  0  0
   61.2763  -31.2948   30.1606 H   0  0  0  0  0  0  0  0  0  0  0  0
   61.2694  -30.0476   31.4114 H   0  0  0  0  0  0  0  0  0  0  0  0
   63.5371  -29.2926   30.6710 H   0  0  0  0  0  0  0  0  0  0  0  0
   63.5440  -30.5398   29.4202 H   0  0  0  0  0  0  0  0  0  0  0  0
   63.3020  -32.3038   31.1788 H   0  0  0  0  0  0  0  0  0  0  0  0
   63.2970  -31.0560   32.4290 H   0  0  0  0  0  0  0  0  0  0  0  0
   65.5648  -30.3031   31.6865 H   0  0  0  0  0  0  0  0  0  0  0  0
   65.5696  -31.5509   30.4363 H   0  0  0  0  0  0  0  0  0  0  0  0
   65.3285  -33.3142   32.1951 H   0  0  0  0  0  0  0  0  0  0  0  0
   65.3238  -32.0664   33.4454 H   0  0  0  0  0  0  0  0  0  0  0  0
   67.5916  -31.3138   32.7027 H   0  0  0  0  0  0  0  0  0  0  0  0
   67.5963  -32.5616   31.4525 H   0  0  0  0  0  0  0  0  0  0  0  0
   67.3552  -34.3249   33.2113 H   0  0  0  0  0  0  0  0  0  0  0  0
   67.3506  -33.0770   34.4617 H   0  0  0  0  0  0  0  0  0  0  0  0
   69.6184  -32.3242   33.7188 H   0  0  0  0  0  0  0  0  0  0  0  0
   69.6229  -33.5721   32.4685 H   0  0  0  0  0  0  0  0  0  0  0  0
   69.3809  -35.3352   34.2283 H   0  0  0  0  0  0  0  0  0  0  0  0
   69.3784  -34.0867   35.4780 H   0  0  0  0  0  0  0  0  0  0  0  0
   71.6465  -33.3365   34.7329 H   0  0  0  0  0  0  0  0  0  0  0  0
   71.6488  -34.5850   33.4833 H   0  0  0  0  0  0  0  0  0  0  0  0
   71.4088  -36.3473   35.2435 H   0  0  0  0  0  0  0  0  0  0  0  0
   71.4066  -35.0991   36.4931 H   0  0  0  0  0  0  0  0  0  0  0  0
   73.6754  -34.3493   35.7496 H   0  0  0  0  0  0  0  0  0  0  0  0
   73.6777  -35.5962   34.4981 H   0  0  0  0  0  0  0  0  0  0  0  0
   73.4378  -37.3603   36.2571 H   0  0  0  0  0  0  0  0  0  0  0  0
   73.4376  -36.1138   37.5072 H   0  0  0  0  0  0  0  0  0  0  0  0
   75.7171  -35.3780   36.7732 H   0  0  0  0  0  0  0  0  0  0  0  0
   75.7171  -36.6242   35.5235 H   0  0  0  0  0  0  0  0  0  0  0  0
   75.4946  -37.1389   38.5358 H   0  0  0  0  0  0  0  0  0  0  0  0
   76.9395  -37.3965   37.5398 H   0  0  0  0  0  0  0  0  0  0  0  0
   75.4946  -38.3918   37.2793 H   0  0  0  0  0  0  0  0  0  0  0  0
  1  2  1  0  0  0  0
  1 80  1  0  0  0  0
  2  3  1  0  0  0  0
  2  7  1  0  0  0  0
  2 81  1  0  0  0  0
  3  4  1  0  0  0  0
  3 82  1  0  0  0  0
  3 83  1  0  0  0  0
  4  5  1  0  0  0  0
  4 84  1  0  0  0  0
  4 85  1  0  0  0  0
  5  6  1  0  0  0  0
  5 86  1  0  0  0  0
  5 87  1  0  0  0  0
  6 88  1  0  0  0  0
  7  8  1  0  0  0  0
  7 89  1  0  0  0  0
  7 90  1  0  0  0  0
  8  9  1  0  0  0  0
  8 91  1  0  0  0  0
  8 92  1  0  0  0  0
  9 10  1  0  0  0  0
  9 93  1  0  0  0  0
  9 94  1  0  0  0  0
 10 11  1  0  0  0  0
 10 95  1  0  0  0  0
 10 96  1  0  0  0  0
 11 12  1  0  0  0  0
 11 97  1  0  0  0  0
 11 98  1  0  0  0  0
 12 13  1  0  0  0  0
 12 99  1  0  0  0  0
 12100  1  0  0  0  0
 13 14  1  0  0  0  0
 13101  1  0  0  0  0
 13102  1  0  0  0  0
 14 15  1  0  0  0  0
 14103  1  0  0  0  0
 14104  1  0  0  0  0
 15 16  1  0  0  0  0
 15105  1  0  0  0  0
 15106  1  0  0  0  0
 16 17  1  0  0  0  0
 16107  1  0  0  0  0
 16108  1  0  0  0  0
 17 18  1  0  0  0  0
 17109  1  0  0  0  0
 17110  1  0  0  0  0
 18 19  1  0  0  0  0
 18111  1  0  0  0  0
 18112  1  0  0  0  0
 19 20  1  0  0  0  0
 19113  1  0  0  0  0
 19114  1  0  0  0  0
 20 21  1  0  0  0  0
 20115  1  0  0  0  0
 20116  1  0  0  0  0
 21 22  1  0  0  0  0
 21117  1  0  0  0  0
 21118  1  0  0  0  0
 22 23  1  0  0  0  0
 22119  1  0  0  0  0
 22120  1  0  0  0  0
 23 24  1  0  0  0  0
 23121  1  0  0  0  0
 23122  1  0  0  0  0
 24 25  1  0  0  0  0
 24123  1  0  0  0  0
 24124  1  0  0  0  0
 25 26  1  0  0  0  0
 25125  1  0  0  0  0
 25126  1  0  0  0  0
 26 27  1  0  0  0  0
 26127  1  0  0  0  0
 26128  1  0  0  0  0
 27 28  1  0  0  0  0
 27129  1  0  0  0  0
 27130  1  0  0  0  0
 28 29  1  0  0  0  0
 28131  1  0  0  0  0
 28132  1  0  0  0  0
 29 30  1  0  0  0  0
 29133  1  0  0  0  0
 29134  1  0  0  0  0
 30 31  1  0  0  0  0
 30135  1  0  0  0  0
 30136  1  0  0  0  0
 31 32  1  0  0  0  0
 31137  1  0  0  0  0
 31138  1  0  0  0  0
 32 33  1  0  0  0  0
 32139  1  0  0  0  0
 32140  1  0  0  0  0
 33 34  1  0  0  0  0
 33141  1  0  0  0  0
 33142  1  0  0  0  0
 34 35  1  0  0  0  0
 34143  1  0  0  0  0
 34144  1  0  0  0  0
 35 36  1  0  0  0  0
 35145  1  0  0  0  0
 35146  1  0  0  0  0
 36 37  1  0  0  0  0
 36147  1  0  0  0  0
 36148  1  0  0  0  0
 37 38  1  0  0  0  0
 37149  1  0  0  0  0
 37150  1  0  0  0  0
 38 39  1  0  0  0  0
 38151  1  0  0  0  0
 38152  1  0  0  0  0
 39 40  1  0  0  0  0
 39153  1  0  0  0  0
 39154  1  0  0  0  0
 40 41  1  0  0  0  0
 40155  1  0  0  0  0
 40156  1  0  0  0  0
 41 42  1  0  0  0  0
 41157  1  0  0  0  0
 41158  1  0  0  0  0
 42 43  1  0  0  0  0
 42159  1  0  0  0  0
 42160  1  0  0  0  0
 43 44  1  0  0  0  0
 43161  1  0  0  0  0
 43162  1  0  0  0  0
 44 45  1  0  0  0  0
 44163  1  0  0  0  0
 44164  1  0  0  0  0
 45 46  1  0  0  0  0
 45165  1  0  0  0  0
 45166  1  0  0  0  0
 46 47  1  0  0  0  0
 46167  1  0  0  0  0
 46168  1  0  0  0  0
 47 48  1  0  0  0  0
 47169  1  0  0  0  0
 47170  1  0  0  0  0
 48 49  1  0  0  0  0
 48171  1  0  0  0  0
 48172  1  0  0  0  0
 49 50  1  0  0  0  0
 49173  1  0  0  0  0
 49174  1  0  0  0  0
 50 51  1  0  0  0  0
 50175  1  0  0  0  0
 50176  1  0  0  0  0
 51 52  1  0  0  0  0
 51177  1  0  0  0  0
 51178  1  0  0  0  0
 52 53  1  0  0  0  0
 52179  1  0  0  0  0
 52180  1  0  0  0  0
 53 54  1  0  0  0  0
 53181  1  0  0  0  0
 53182  1  0  0  0  0
 54 55  1  0  0  0  0
 54183  1  0  0  0  0
 54184  1  0  0  0  0
 55 56  1  0  0  0  0
 55185  1  0  0  0  0
 55186  1  0  0  0  0
 56 57  1  0  0  0  0
 56187  1  0  0  0  0
 56188  1  0  0  0  0
 57 58  1  0  0  0  0
 57189  1  0  0  0  0
 57190  1  0  0  0  0
 58 59  1  0  0  0  0
 58191  1  0  0  0  0
 58192  1  0  0  0  0
 59 60  1  0  0  0  0
 59193  1  0  0  0  0
 59194  1  0  0  0  0
 60 61  1  0  0  0  0
 60195  1  0  0  0  0
 60196  1  0  0  0  0
 61 62  1  0  0  0  0
 61197  1  0  0  0  0
 61198  1  0  0  0  0
 62 63  1  0  0  0  0
 62199  1  0  0  0  0
 62200  1  0  0  0  0
 63 64  1  0  0  0  0
 63201  1  0  0  0  0
 63202  1  0  0  0  0
 64 65  1  0  0  0  0
 64203  1  0  0  0  0
 64204  1  0  0  0  0
 65 66  1  0  0  0  0
 65205  1  0  0  0  0
 65206  1  0  0  0  0
 66 67  1  0  0  0  0
 66207  1  0  0  0  0
 66208  1  0  0  0  0
 67 68  1  0  0  0  0
 67209  1  0  0  0  0
 67210  1  0  0  0  0
 68 69  1  0  0  0  0
 68211  1  0  0  0  0
 68212  1  0  0  0  0
 69 70  1  0  0  0  0
 69213  1  0  0  0  0
 69214  1  0  0  0  0
 70 71  1  0  0  0  0
 70215  1  0  0  0  0
 70216  1  0  0  0  0
 71 72  1  0  0  0  0
 71217  1  0  0  0  0
 71218  1  0  0  0  0
 72 73  1  0  0  0  0
 72219  1  0  0  0  0
 72220  1  0  0  0  0
 73 74  1  0  0  0  0
 73221  1  0  0  0  0
 73222  1  0  0  0  0
 74 75  1  0  0  0  0
 74223  1  0  0  0  0
 74224  1  0  0  0  0
 75 76  1  0  0  0  0
 75225  1  0  0  0  0
 75226  1  0  0  0  0
 76 77  1  0  0  0  0
 76227  1  0  0  0  0
 76228  1  0  0  0  0
 77 78  1  0  0  0  0
 77229  1  0  0  0  0
 77230  1  0  0  0  0
 78 79  1  0  0  0  0
 78231  1  0  0  0  0
 78232  1  0  0  0  0
 79233  1  0  0  0  0
 79234  1  0  0  0  0
 79235  1  0  0  0  0
M  END
$$$$
