
 OpenBabel04232216523D

 58 58  0  0  1  0  0  0  0  0999 V2000
    4.3423    3.7750    1.9859 C   0  0  0  0  0  0  0  0  0  0  0  0
    4.0817    3.1971    0.6022 C   0  0  0  0  0  0  0  0  0  0  0  0
    4.3927    1.7028    0.5610 C   0  0  0  0  0  0  0  0  0  0  0  0
    4.3528    1.0668   -0.8392 C   0  0  0  0  0  0  0  0  0  0  0  0
    5.1371    1.7481   -1.9914 C   0  0  3  0  0  0  0  0  0  0  0  0
    6.7148    1.7299   -1.9410 C   0  0  3  0  0  0  0  0  0  0  0  0
    7.2215    3.1361   -2.3247 C   0  0  0  0  0  0  0  0  0  0  0  0
    7.3130    1.3346   -0.5820 C   0  0  0  0  0  0  0  0  0  0  0  0
    8.8322    1.1246   -0.4806 C   0  0  0  0  0  0  0  0  0  0  0  0
    9.4094   -0.1281   -1.1502 C   0  0  0  0  0  0  0  0  0  0  0  0
    8.5848   -1.3920   -0.9129 C   0  0  0  0  0  0  0  0  0  0  0  0
    9.3709   -2.6633   -1.1677 C   0  0  0  0  0  0  0  0  0  0  0  0
   10.4270   -2.9083   -0.5890 O   0  0  0  0  0  0  0  0  0  0  0  0
    8.8283   -3.6098   -1.9940 N   0  0  0  0  0  0  0  0  0  0  0  0
    8.1317   -3.3213   -3.2338 C   0  0  0  0  0  0  0  0  0  0  0  0
    6.6672   -3.7431   -3.2008 C   0  0  0  0  0  0  0  0  0  0  0  0
    5.9640   -3.4545   -4.5399 C   0  0  0  0  0  0  0  0  0  0  0  0
    4.7826   -2.4948   -4.3839 C   0  0  0  0  0  0  0  0  0  0  0  0
    5.2206   -1.0232   -4.3277 C   0  0  0  0  0  0  0  0  0  0  0  0
    4.1952   -0.1787   -3.5750 C   0  0  0  0  0  0  0  0  0  0  0  0
    4.6062    1.2938   -3.3955 C   0  0  0  0  0  0  0  0  0  0  0  0
    4.0283    4.8227    2.0257 H   0  0  0  0  0  0  0  0  0  0  0  0
    5.4106    3.7362    2.2208 H   0  0  0  0  0  0  0  0  0  0  0  0
    3.7995    3.2225    2.7585 H   0  0  0  0  0  0  0  0  0  0  0  0
    4.7014    3.7539   -0.1058 H   0  0  0  0  0  0  0  0  0  0  0  0
    3.0344    3.3581    0.3247 H   0  0  0  0  0  0  0  0  0  0  0  0
    3.6540    1.1771    1.1816 H   0  0  0  0  0  0  0  0  0  0  0  0
    5.3448    1.5040    1.0560 H   0  0  0  0  0  0  0  0  0  0  0  0
    3.2937    1.0337   -1.1279 H   0  0  0  0  0  0  0  0  0  0  0  0
    4.6761    0.0236   -0.7391 H   0  0  0  0  0  0  0  0  0  0  0  0
    4.8450    2.8055   -1.9589 H   0  0  0  0  0  0  0  0  0  0  0  0
    7.0838    1.0261   -2.6957 H   0  0  0  0  0  0  0  0  0  0  0  0
    6.9698    3.8664   -1.5405 H   0  0  0  0  0  0  0  0  0  0  0  0
    6.7670    3.4877   -3.2558 H   0  0  0  0  0  0  0  0  0  0  0  0
    8.3063    3.1579   -2.4583 H   0  0  0  0  0  0  0  0  0  0  0  0
    6.8314    0.4205   -0.2179 H   0  0  0  0  0  0  0  0  0  0  0  0
    7.0839    2.1246    0.1311 H   0  0  0  0  0  0  0  0  0  0  0  0
    9.0696    1.0556    0.5917 H   0  0  0  0  0  0  0  0  0  0  0  0
    9.3684    2.0092   -0.8394 H   0  0  0  0  0  0  0  0  0  0  0  0
   10.4278   -0.2662   -0.7638 H   0  0  0  0  0  0  0  0  0  0  0  0
    9.5161    0.0419   -2.2274 H   0  0  0  0  0  0  0  0  0  0  0  0
    7.6699   -1.3637   -1.5105 H   0  0  0  0  0  0  0  0  0  0  0  0
    8.2710   -1.4466    0.1375 H   0  0  0  0  0  0  0  0  0  0  0  0
    9.3945   -4.4518   -1.9967 H   0  0  0  0  0  0  0  0  0  0  0  0
    8.6577   -3.8825   -4.0124 H   0  0  0  0  0  0  0  0  0  0  0  0
    8.2342   -2.2560   -3.4786 H   0  0  0  0  0  0  0  0  0  0  0  0
    6.1538   -3.2584   -2.3636 H   0  0  0  0  0  0  0  0  0  0  0  0
    6.6161   -4.8220   -3.0017 H   0  0  0  0  0  0  0  0  0  0  0  0
    5.5824   -4.4034   -4.9341 H   0  0  0  0  0  0  0  0  0  0  0  0
    6.6654   -3.0681   -5.2891 H   0  0  0  0  0  0  0  0  0  0  0  0
    4.2067   -2.7717   -3.4937 H   0  0  0  0  0  0  0  0  0  0  0  0
    4.1049   -2.6227   -5.2388 H   0  0  0  0  0  0  0  0  0  0  0  0
    5.3248   -0.6469   -5.3517 H   0  0  0  0  0  0  0  0  0  0  0  0
    6.2008   -0.9255   -3.8458 H   0  0  0  0  0  0  0  0  0  0  0  0
    3.9696   -0.6577   -2.6203 H   0  0  0  0  0  0  0  0  0  0  0  0
    3.2559   -0.2040   -4.1445 H   0  0  0  0  0  0  0  0  0  0  0  0
    3.6960    1.8844   -3.5766 H   0  0  0  0  0  0  0  0  0  0  0  0
    5.3023    1.5987   -4.1868 H   0  0  0  0  0  0  0  0  0  0  0  0
  1  2  1  0  0  0  0
  1 22  1  0  0  0  0
  1 23  1  0  0  0  0
  1 24  1  0  0  0  0
  2  3  1  0  0  0  0
  2 25  1  0  0  0  0
  2 26  1  0  0  0  0
  3  4  1  0  0  0  0
  3 27  1  0  0  0  0
  3 28  1  0  0  0  0
  4  5  1  0  0  0  0
  4 29  1  0  0  0  0
  4 30  1  0  0  0  0
  5  6  1  0  0  0  0
  5 21  1  0  0  0  0
  5 31  1  0  0  0  0
  6  7  1  0  0  0  0
  6  8  1  0  0  0  0
  6 32  1  0  0  0  0
  7 33  1  0  0  0  0
  7 34  1  0  0  0  0
  7 35  1  0  0  0  0
  8  9  1  0  0  0  0
  8 36  1  0  0  0  0
  8 37  1  0  0  0  0
  9 10  1  0  0  0  0
  9 38  1  0  0  0  0
  9 39  1  0  0  0  0
 10 11  1  0  0  0  0
 10 40  1  0  0  0  0
 10 41  1  0  0  0  0
 11 12  1  0  0  0  0
 11 42  1  0  0  0  0
 11 43  1  0  0  0  0
 12 13  2  0  0  0  0
 12 14  1  0  0  0  0
 14 15  1  0  0  0  0
 14 44  1  0  0  0  0
 15 16  1  0  0  0  0
 15 45  1  0  0  0  0
 15 46  1  0  0  0  0
 16 17  1  0  0  0  0
 16 47  1  0  0  0  0
 16 48  1  0  0  0  0
 17 18  1  0  0  0  0
 17 49  1  0  0  0  0
 17 50  1  0  0  0  0
 18 19  1  0  0  0  0
 18 51  1  0  0  0  0
 18 52  1  0  0  0  0
 19 20  1  0  0  0  0
 19 53  1  0  0  0  0
 19 54  1  0  0  0  0
 20 21  1  0  0  0  0
 20 55  1  0  0  0  0
 20 56  1  0  0  0  0
 21 57  1  0  0  0  0
 21 58  1  0  0  0  0
M  END
$$$$
