
 OpenBabel04232216393D

 17 17  0  0  0  0  0  0  0  0999 V2000
    1.3661    0.1169    0.0069 C   0  0  0  0  0  0  0  0  0  0  0  0
    2.5563    0.0694   -0.1427 C   0  0  0  0  0  0  0  0  0  0  0  0
    3.9933   -0.0103   -0.3416 N   0  0  0  0  0  0  0  0  0  0  0  0
    4.6417   -1.1445    0.0686 C   0  0  0  0  0  0  0  0  0  0  0  0
    5.8733   -0.8899    0.5076 C   0  0  0  0  0  0  0  0  0  0  0  0
    6.0680    0.5899    0.4731 C   0  0  0  0  0  0  0  0  0  0  0  0
    4.8173    1.1482   -0.1305 N   0  0  0  0  0  0  0  0  0  0  0  0
    5.0688    1.7208   -1.4636 C   0  0  0  0  0  0  0  0  0  0  0  0
    6.1427    3.1871   -1.4484 S   0  0  0  0  0  0  0  0  0  0  0  0
    0.3085    0.1448    0.1351 H   0  0  0  0  0  0  0  0  0  0  0  0
    4.1474   -2.1028    0.0123 H   0  0  0  0  0  0  0  0  0  0  0  0
    6.5898   -1.6064    0.8741 H   0  0  0  0  0  0  0  0  0  0  0  0
    6.9824    0.8406   -0.0727 H   0  0  0  0  0  0  0  0  0  0  0  0
    6.1639    0.9681    1.4972 H   0  0  0  0  0  0  0  0  0  0  0  0
    4.1166    2.0540   -1.8922 H   0  0  0  0  0  0  0  0  0  0  0  0
    5.4978    0.9832   -2.1531 H   0  0  0  0  0  0  0  0  0  0  0  0
    5.4473    3.8568   -0.5219 H   0  0  0  0  0  0  0  0  0  0  0  0
  1  2  3  0  0  0  0
  1 10  1  0  0  0  0
  2  3  1  0  0  0  0
  3  4  1  0  0  0  0
  3  7  1  0  0  0  0
  4  5  2  0  0  0  0
  4 11  1  0  0  0  0
  5  6  1  0  0  0  0
  5 12  1  0  0  0  0
  6  7  1  0  0  0  0
  6 13  1  0  0  0  0
  6 14  1  0  0  0  0
  7  8  1  0  0  0  0
  8  9  1  0  0  0  0
  8 15  1  0  0  0  0
  8 16  1  0  0  0  0
  9 17  1  0  0  0  0
M  END
$$$$
