
 OpenBabel04232216413D

232231  0  0  0  0  0  0  0  0999 V2000
    1.3968   -0.8843    0.0355 C   0  0  0  0  0  0  0  0  0  0  0  0
    2.2709    0.1244   -0.0673 C   0  0  0  0  0  0  0  0  0  0  0  0
    3.0593    0.4162   -1.3112 C   0  0  0  0  0  0  0  0  0  0  0  0
    4.4970    0.3746   -1.0387 N   0  0  0  0  0  0  0  0  0  0  0  0
    5.1969    0.6420   -2.2414 N   0  0  0  0  0  0  0  0  0  0  0  0
    6.5799    0.5567   -1.9927 N   0  0  0  0  0  0  0  0  0  0  0  0
    7.2825    0.8479   -3.1750 N   0  0  0  0  0  0  0  0  0  0  0  0
    8.6747    0.7780   -2.9348 N   0  0  0  0  0  0  0  0  0  0  0  0
    9.3881    1.0496   -4.1299 N   0  0  0  0  0  0  0  0  0  0  0  0
   10.7903    0.9994   -3.8985 N   0  0  0  0  0  0  0  0  0  0  0  0
   11.5045    1.2671   -5.1054 N   0  0  0  0  0  0  0  0  0  0  0  0
   12.9295    1.1991   -4.8131 C   0  0  0  0  0  0  0  0  0  0  0  0
   13.6982    1.4979   -6.0945 C   0  0  0  0  0  0  0  0  0  0  0  0
   15.1963    1.4298   -5.8383 C   0  0  0  0  0  0  0  0  0  0  0  0
   15.9634    1.7257   -7.1164 C   0  0  0  0  0  0  0  0  0  0  0  0
   17.4580    1.6589   -6.8549 C   0  0  0  0  0  0  0  0  0  0  0  0
   18.2229    1.9568   -8.1318 C   0  0  0  0  0  0  0  0  0  0  0  0
   19.7160    1.8882   -7.8690 C   0  0  0  0  0  0  0  0  0  0  0  0
   20.4794    2.1880   -9.1454 C   0  0  0  0  0  0  0  0  0  0  0  0
   21.9718    2.1209   -8.8815 C   0  0  0  0  0  0  0  0  0  0  0  0
   22.7347    2.4226  -10.1574 C   0  0  0  0  0  0  0  0  0  0  0  0
   24.2268    2.3577   -9.8930 C   0  0  0  0  0  0  0  0  0  0  0  0
   24.9893    2.6577  -11.1694 C   0  0  0  0  0  0  0  0  0  0  0  0
   26.4814    2.5947  -10.9044 C   0  0  0  0  0  0  0  0  0  0  0  0
   27.2439    2.8946  -12.1807 C   0  0  0  0  0  0  0  0  0  0  0  0
   28.7359    2.8333  -11.9153 C   0  0  0  0  0  0  0  0  0  0  0  0
   29.4984    3.1332  -13.1915 C   0  0  0  0  0  0  0  0  0  0  0  0
   30.9903    3.0719  -12.9259 C   0  0  0  0  0  0  0  0  0  0  0  0
   31.7528    3.3718  -14.2022 C   0  0  0  0  0  0  0  0  0  0  0  0
   33.2447    3.3110  -13.9367 C   0  0  0  0  0  0  0  0  0  0  0  0
   34.0071    3.6110  -15.2130 C   0  0  0  0  0  0  0  0  0  0  0  0
   35.4991    3.5499  -14.9475 C   0  0  0  0  0  0  0  0  0  0  0  0
   36.2615    3.8517  -16.2233 C   0  0  0  0  0  0  0  0  0  0  0  0
   37.7535    3.7904  -15.9577 C   0  0  0  0  0  0  0  0  0  0  0  0
   38.5159    4.0919  -17.2336 C   0  0  0  0  0  0  0  0  0  0  0  0
   40.0080    4.0305  -16.9684 C   0  0  0  0  0  0  0  0  0  0  0  0
   40.7701    4.3343  -18.2440 C   0  0  0  0  0  0  0  0  0  0  0  0
   42.2621    4.2719  -17.9791 C   0  0  0  0  0  0  0  0  0  0  0  0
   43.0247    4.5744  -19.2547 C   0  0  0  0  0  0  0  0  0  0  0  0
   44.5167    4.5129  -18.9889 C   0  0  0  0  0  0  0  0  0  0  0  0
   45.2792    4.8162  -20.2643 C   0  0  0  0  0  0  0  0  0  0  0  0
   46.7712    4.7526  -19.9994 C   0  0  0  0  0  0  0  0  0  0  0  0
   47.5338    5.0558  -21.2750 C   0  0  0  0  0  0  0  0  0  0  0  0
   49.0258    4.9933  -21.0100 C   0  0  0  0  0  0  0  0  0  0  0  0
   49.7873    5.2976  -22.2857 C   0  0  0  0  0  0  0  0  0  0  0  0
   51.2803    5.2338  -22.0202 C   0  0  0  0  0  0  0  0  0  0  0  0
   52.0425    5.5379  -23.2957 C   0  0  0  0  0  0  0  0  0  0  0  0
   53.5344    5.4728  -23.0307 C   0  0  0  0  0  0  0  0  0  0  0  0
   54.2969    5.7786  -24.3055 C   0  0  0  0  0  0  0  0  0  0  0  0
   55.7888    5.7119  -24.0414 C   0  0  0  0  0  0  0  0  0  0  0  0
   56.5512    6.0177  -25.3163 C   0  0  0  0  0  0  0  0  0  0  0  0
   58.0432    5.9526  -25.0516 C   0  0  0  0  0  0  0  0  0  0  0  0
   58.8056    6.2600  -26.3260 C   0  0  0  0  0  0  0  0  0  0  0  0
   60.2976    6.1966  -26.0611 C   0  0  0  0  0  0  0  0  0  0  0  0
   61.0599    6.5025  -27.3361 C   0  0  0  0  0  0  0  0  0  0  0  0
   62.5519    6.4378  -27.0715 C   0  0  0  0  0  0  0  0  0  0  0  0
   63.3143    6.7459  -28.3460 C   0  0  0  0  0  0  0  0  0  0  0  0
   64.8062    6.6817  -28.0814 C   0  0  0  0  0  0  0  0  0  0  0  0
   65.5684    6.9909  -29.3557 C   0  0  0  0  0  0  0  0  0  0  0  0
   67.0602    6.9252  -29.0910 C   0  0  0  0  0  0  0  0  0  0  0  0
   67.8231    7.2345  -30.3646 C   0  0  0  0  0  0  0  0  0  0  0  0
   69.3152    7.1690  -30.1003 C   0  0  0  0  0  0  0  0  0  0  0  0
   70.0778    7.4792  -31.3741 C   0  0  0  0  0  0  0  0  0  0  0  0
   71.5699    7.4142  -31.1096 C   0  0  0  0  0  0  0  0  0  0  0  0
   72.3323    7.7238  -32.3837 C   0  0  0  0  0  0  0  0  0  0  0  0
   73.8244    7.6586  -32.1191 C   0  0  0  0  0  0  0  0  0  0  0  0
   74.5867    7.9683  -33.3932 C   0  0  0  0  0  0  0  0  0  0  0  0
   76.0787    7.9033  -33.1286 C   0  0  0  0  0  0  0  0  0  0  0  0
   76.8413    8.2111  -34.4029 C   0  0  0  0  0  0  0  0  0  0  0  0
   78.3333    8.1460  -34.1381 C   0  0  0  0  0  0  0  0  0  0  0  0
   79.0960    8.4537  -35.4125 C   0  0  0  0  0  0  0  0  0  0  0  0
   80.5882    8.3887  -35.1482 C   0  0  0  0  0  0  0  0  0  0  0  0
   81.3511    8.6964  -36.4228 C   0  0  0  0  0  0  0  0  0  0  0  0
   82.8439    8.6315  -36.1590 C   0  0  0  0  0  0  0  0  0  0  0  0
   83.6072    8.9375  -37.4343 C   0  0  0  0  0  0  0  0  0  0  0  0
   85.1014    8.8732  -37.1737 C   0  0  0  0  0  0  0  0  0  0  0  0
   85.8684    9.1792  -38.4498 C   0  0  0  0  0  0  0  0  0  0  0  0
   87.3644    9.1133  -38.1904 C   0  0  0  0  0  0  0  0  0  0  0  0
   88.1432    9.4166  -39.4635 C   0  0  0  0  0  0  0  0  0  0  0  0
   89.6327    9.3495  -39.1995 C   0  0  0  0  0  0  0  0  0  0  0  0
    0.8502   -1.0504    0.9556 H   0  0  0  0  0  0  0  0  0  0  0  0
    1.2237   -1.5578   -0.7965 H   0  0  0  0  0  0  0  0  0  0  0  0
    2.4197    0.7811    0.7859 H   0  0  0  0  0  0  0  0  0  0  0  0
    2.7755    1.4187   -1.6562 H   0  0  0  0  0  0  0  0  0  0  0  0
    2.7961   -0.2933   -2.1061 H   0  0  0  0  0  0  0  0  0  0  0  0
    4.7620   -0.5654   -0.7540 H   0  0  0  0  0  0  0  0  0  0  0  0
    4.9909    1.5805   -2.5725 H   0  0  0  0  0  0  0  0  0  0  0  0
    6.8116   -0.3807   -1.6707 H   0  0  0  0  0  0  0  0  0  0  0  0
    7.0394    1.7823   -3.4985 H   0  0  0  0  0  0  0  0  0  0  0  0
    8.8866   -0.1591   -2.6021 H   0  0  0  0  0  0  0  0  0  0  0  0
    9.1133    1.9804   -4.4306 H   0  0  0  0  0  0  0  0  0  0  0  0
   11.0024    0.0587   -3.5703 H   0  0  0  0  0  0  0  0  0  0  0  0
   11.2641    2.2068   -5.4192 H   0  0  0  0  0  0  0  0  0  0  0  0
   13.2028    0.1984   -4.4547 H   0  0  0  0  0  0  0  0  0  0  0  0
   13.2081    1.9256   -4.0390 H   0  0  0  0  0  0  0  0  0  0  0  0
   13.4356    2.4948   -6.4714 H   0  0  0  0  0  0  0  0  0  0  0  0
   13.4261    0.7751   -6.8746 H   0  0  0  0  0  0  0  0  0  0  0  0
   15.4669    0.4341   -5.4660 H   0  0  0  0  0  0  0  0  0  0  0  0
   15.4755    2.1533   -5.0626 H   0  0  0  0  0  0  0  0  0  0  0  0
   15.6958    2.7212   -7.4915 H   0  0  0  0  0  0  0  0  0  0  0  0
   15.6894    1.0017   -7.8936 H   0  0  0  0  0  0  0  0  0  0  0  0
   17.7285    0.6633   -6.4822 H   0  0  0  0  0  0  0  0  0  0  0  0
   17.7346    2.3823   -6.0779 H   0  0  0  0  0  0  0  0  0  0  0  0
   17.9552    2.9533   -8.5043 H   0  0  0  0  0  0  0  0  0  0  0  0
   17.9477    1.2346   -8.9102 H   0  0  0  0  0  0  0  0  0  0  0  0
   19.9853    0.8914   -7.4983 H   0  0  0  0  0  0  0  0  0  0  0  0
   19.9925    2.6097   -7.0904 H   0  0  0  0  0  0  0  0  0  0  0  0
   20.2102    3.1844   -9.5171 H   0  0  0  0  0  0  0  0  0  0  0  0
   20.2048    1.4659   -9.9242 H   0  0  0  0  0  0  0  0  0  0  0  0
   22.2419    1.1242   -8.5112 H   0  0  0  0  0  0  0  0  0  0  0  0
   22.2468    2.8421   -8.1020 H   0  0  0  0  0  0  0  0  0  0  0  0
   22.4639    3.4188  -10.5285 H   0  0  0  0  0  0  0  0  0  0  0  0
   22.4610    1.7005  -10.9365 H   0  0  0  0  0  0  0  0  0  0  0  0
   24.4979    1.3620   -9.5207 H   0  0  0  0  0  0  0  0  0  0  0  0
   24.5006    3.0809   -9.1150 H   0  0  0  0  0  0  0  0  0  0  0  0
   24.7175    3.6529  -11.5424 H   0  0  0  0  0  0  0  0  0  0  0  0
   24.7166    1.9338  -11.9471 H   0  0  0  0  0  0  0  0  0  0  0  0
   26.7534    1.5996  -10.5313 H   0  0  0  0  0  0  0  0  0  0  0  0
   26.7541    3.3188  -10.1268 H   0  0  0  0  0  0  0  0  0  0  0  0
   26.9710    3.8891  -12.5546 H   0  0  0  0  0  0  0  0  0  0  0  0
   26.9721    2.1697  -12.9579 H   0  0  0  0  0  0  0  0  0  0  0  0
   29.0088    1.8388  -11.5413 H   0  0  0  0  0  0  0  0  0  0  0  0
   29.0076    3.5583  -11.1381 H   0  0  0  0  0  0  0  0  0  0  0  0
   29.2255    4.1277  -13.5654 H   0  0  0  0  0  0  0  0  0  0  0  0
   29.2267    2.4083  -13.9688 H   0  0  0  0  0  0  0  0  0  0  0  0
   31.2633    2.0774  -12.5519 H   0  0  0  0  0  0  0  0  0  0  0  0
   31.2621    3.7968  -12.1487 H   0  0  0  0  0  0  0  0  0  0  0  0
   31.4796    4.3663  -14.5761 H   0  0  0  0  0  0  0  0  0  0  0  0
   31.4811    2.6468  -14.9793 H   0  0  0  0  0  0  0  0  0  0  0  0
   33.5179    2.3165  -13.5628 H   0  0  0  0  0  0  0  0  0  0  0  0
   33.5163    4.0359  -13.1594 H   0  0  0  0  0  0  0  0  0  0  0  0
   33.7340    4.6055  -15.5869 H   0  0  0  0  0  0  0  0  0  0  0  0
   33.7355    2.8861  -15.9902 H   0  0  0  0  0  0  0  0  0  0  0  0
   35.7722    2.5549  -14.5749 H   0  0  0  0  0  0  0  0  0  0  0  0
   35.7706    4.2738  -14.1692 H   0  0  0  0  0  0  0  0  0  0  0  0
   35.9884    4.8466  -16.5960 H   0  0  0  0  0  0  0  0  0  0  0  0
   35.9901    3.1276  -17.0015 H   0  0  0  0  0  0  0  0  0  0  0  0
   38.0265    2.7954  -15.5851 H   0  0  0  0  0  0  0  0  0  0  0  0
   38.0251    4.5144  -15.1796 H   0  0  0  0  0  0  0  0  0  0  0  0
   38.2429    5.0869  -17.6062 H   0  0  0  0  0  0  0  0  0  0  0  0
   38.2442    3.3680  -18.0118 H   0  0  0  0  0  0  0  0  0  0  0  0
   40.2813    3.0351  -16.5970 H   0  0  0  0  0  0  0  0  0  0  0  0
   40.2794    4.7535  -16.1893 H   0  0  0  0  0  0  0  0  0  0  0  0
   40.4974    5.3302  -18.6144 H   0  0  0  0  0  0  0  0  0  0  0  0
   40.4979    3.6122  -19.0236 H   0  0  0  0  0  0  0  0  0  0  0  0
   42.5347    3.2763  -17.6077 H   0  0  0  0  0  0  0  0  0  0  0  0
   42.5342    4.9949  -17.2003 H   0  0  0  0  0  0  0  0  0  0  0  0
   42.7515    5.5694  -19.6271 H   0  0  0  0  0  0  0  0  0  0  0  0
   42.7534    3.8505  -20.0331 H   0  0  0  0  0  0  0  0  0  0  0  0
   44.7898    3.5174  -18.6176 H   0  0  0  0  0  0  0  0  0  0  0  0
   44.7882    5.2357  -18.2096 H   0  0  0  0  0  0  0  0  0  0  0  0
   45.0072    5.8122  -20.6349 H   0  0  0  0  0  0  0  0  0  0  0  0
   45.0065    4.0941  -21.0437 H   0  0  0  0  0  0  0  0  0  0  0  0
   47.0434    3.7565  -19.6286 H   0  0  0  0  0  0  0  0  0  0  0  0
   47.0438    5.4747  -19.2198 H   0  0  0  0  0  0  0  0  0  0  0  0
   47.2614    6.0521  -21.6451 H   0  0  0  0  0  0  0  0  0  0  0  0
   47.2611    4.3341  -22.0547 H   0  0  0  0  0  0  0  0  0  0  0  0
   49.2981    3.9973  -20.6399 H   0  0  0  0  0  0  0  0  0  0  0  0
   49.2981    5.7150  -20.2304 H   0  0  0  0  0  0  0  0  0  0  0  0
   49.5154    6.2937  -22.6558 H   0  0  0  0  0  0  0  0  0  0  0  0
   49.5154    4.5753  -23.0655 H   0  0  0  0  0  0  0  0  0  0  0  0
   51.5521    4.2379  -21.6496 H   0  0  0  0  0  0  0  0  0  0  0  0
   51.5522    5.9560  -21.2405 H   0  0  0  0  0  0  0  0  0  0  0  0
   51.7711    6.5344  -23.6649 H   0  0  0  0  0  0  0  0  0  0  0  0
   51.7691    4.8167  -24.0757 H   0  0  0  0  0  0  0  0  0  0  0  0
   53.8059    4.4756  -22.6624 H   0  0  0  0  0  0  0  0  0  0  0  0
   53.8076    6.1928  -22.2496 H   0  0  0  0  0  0  0  0  0  0  0  0
   54.0263    6.7762  -24.6729 H   0  0  0  0  0  0  0  0  0  0  0  0
   54.0229    5.0594  -25.0872 H   0  0  0  0  0  0  0  0  0  0  0  0
   56.0594    4.7143  -23.6740 H   0  0  0  0  0  0  0  0  0  0  0  0
   56.0629    6.4312  -23.2598 H   0  0  0  0  0  0  0  0  0  0  0  0
   56.2797    7.0148  -25.6846 H   0  0  0  0  0  0  0  0  0  0  0  0
   56.2781    5.2976  -26.0974 H   0  0  0  0  0  0  0  0  0  0  0  0
   58.3147    4.9551  -24.6846 H   0  0  0  0  0  0  0  0  0  0  0  0
   58.3161    6.6718  -24.2695 H   0  0  0  0  0  0  0  0  0  0  0  0
   58.5331    7.2570  -26.6938 H   0  0  0  0  0  0  0  0  0  0  0  0
   58.5334    5.5400  -27.1076 H   0  0  0  0  0  0  0  0  0  0  0  0
   60.5702    5.2002  -25.6919 H   0  0  0  0  0  0  0  0  0  0  0  0
   60.5698    6.9177  -25.2805 H   0  0  0  0  0  0  0  0  0  0  0  0
   60.7882    7.4994  -27.7043 H   0  0  0  0  0  0  0  0  0  0  0  0
   60.7870    5.7823  -28.1173 H   0  0  0  0  0  0  0  0  0  0  0  0
   62.8239    5.4404  -26.7046 H   0  0  0  0  0  0  0  0  0  0  0  0
   62.8248    7.1570  -26.2894 H   0  0  0  0  0  0  0  0  0  0  0  0
   63.0422    7.7432  -28.7129 H   0  0  0  0  0  0  0  0  0  0  0  0
   63.0415    6.0265  -29.1282 H   0  0  0  0  0  0  0  0  0  0  0  0
   65.0779    5.6836  -27.7163 H   0  0  0  0  0  0  0  0  0  0  0  0
   65.0788    7.3993  -27.2983 H   0  0  0  0  0  0  0  0  0  0  0  0
   65.2967    7.9887  -29.7215 H   0  0  0  0  0  0  0  0  0  0  0  0
   65.2955    6.2724  -30.1386 H   0  0  0  0  0  0  0  0  0  0  0  0
   67.3310    5.9269  -28.7257 H   0  0  0  0  0  0  0  0  0  0  0  0
   67.3332    7.6427  -28.3072 H   0  0  0  0  0  0  0  0  0  0  0  0
   67.5514    8.2323  -30.7306 H   0  0  0  0  0  0  0  0  0  0  0  0
   67.5502    6.5161  -31.1474 H   0  0  0  0  0  0  0  0  0  0  0  0
   69.5873    6.1709  -29.7355 H   0  0  0  0  0  0  0  0  0  0  0  0
   69.5881    7.8867  -29.3168 H   0  0  0  0  0  0  0  0  0  0  0  0
   69.8059    8.4773  -31.7394 H   0  0  0  0  0  0  0  0  0  0  0  0
   69.8052    6.7613  -32.1575 H   0  0  0  0  0  0  0  0  0  0  0  0
   71.8418    6.4163  -30.7440 H   0  0  0  0  0  0  0  0  0  0  0  0
   71.8427    8.1324  -30.3265 H   0  0  0  0  0  0  0  0  0  0  0  0
   72.0605    8.7217  -32.7492 H   0  0  0  0  0  0  0  0  0  0  0  0
   72.0596    7.0056  -33.1667 H   0  0  0  0  0  0  0  0  0  0  0  0
   74.0963    6.6607  -31.7536 H   0  0  0  0  0  0  0  0  0  0  0  0
   74.0972    8.3767  -31.3360 H   0  0  0  0  0  0  0  0  0  0  0  0
   74.3148    8.9663  -33.7588 H   0  0  0  0  0  0  0  0  0  0  0  0
   74.3139    7.2502  -34.1763 H   0  0  0  0  0  0  0  0  0  0  0  0
   76.3505    6.9058  -32.7617 H   0  0  0  0  0  0  0  0  0  0  0  0
   76.3515    8.6223  -32.3463 H   0  0  0  0  0  0  0  0  0  0  0  0
   76.5696    9.2085  -34.7698 H   0  0  0  0  0  0  0  0  0  0  0  0
   76.5684    7.4920  -35.1851 H   0  0  0  0  0  0  0  0  0  0  0  0
   78.6048    7.1484  -33.7712 H   0  0  0  0  0  0  0  0  0  0  0  0
   78.6061    8.8650  -33.3558 H   0  0  0  0  0  0  0  0  0  0  0  0
   78.8242    9.4512  -35.7794 H   0  0  0  0  0  0  0  0  0  0  0  0
   78.8229    7.7346  -36.1946 H   0  0  0  0  0  0  0  0  0  0  0  0
   80.8597    7.3911  -34.7812 H   0  0  0  0  0  0  0  0  0  0  0  0
   80.8610    9.1077  -34.3659 H   0  0  0  0  0  0  0  0  0  0  0  0
   81.0789    9.6938  -36.7896 H   0  0  0  0  0  0  0  0  0  0  0  0
   81.0776    7.9772  -37.2047 H   0  0  0  0  0  0  0  0  0  0  0  0
   83.1148    7.6343  -35.7905 H   0  0  0  0  0  0  0  0  0  0  0  0
   83.1164    9.3514  -35.3775 H   0  0  0  0  0  0  0  0  0  0  0  0
   83.3348    9.9343  -37.8020 H   0  0  0  0  0  0  0  0  0  0  0  0
   83.3331    8.2172  -38.2149 H   0  0  0  0  0  0  0  0  0  0  0  0
   85.3721    7.8761  -36.8040 H   0  0  0  0  0  0  0  0  0  0  0  0
   85.3740    9.5927  -36.3912 H   0  0  0  0  0  0  0  0  0  0  0  0
   85.5955   10.1767  -38.8162 H   0  0  0  0  0  0  0  0  0  0  0  0
   85.5917    8.4594  -39.2302 H   0  0  0  0  0  0  0  0  0  0  0  0
   87.6307    8.1163  -37.8188 H   0  0  0  0  0  0  0  0  0  0  0  0
   87.6349    9.8321  -37.4074 H   0  0  0  0  0  0  0  0  0  0  0  0
   87.8781   10.4139  -39.8335 H   0  0  0  0  0  0  0  0  0  0  0  0
   87.8738    8.6966  -40.2451 H   0  0  0  0  0  0  0  0  0  0  0  0
   89.9269   10.0785  -38.4381 H   0  0  0  0  0  0  0  0  0  0  0  0
   90.1908    9.5679  -40.1166 H   0  0  0  0  0  0  0  0  0  0  0  0
   89.9225    8.3531  -38.8517 H   0  0  0  0  0  0  0  0  0  0  0  0
  1  2  2  0  0  0  0
  1 81  1  0  0  0  0
  1 82  1  0  0  0  0
  2  3  1  0  0  0  0
  2 83  1  0  0  0  0
  3  4  1  0  0  0  0
  3 84  1  0  0  0  0
  3 85  1  0  0  0  0
  4  5  1  0  0  0  0
  4 86  1  0  0  0  0
  5  6  1  0  0  0  0
  5 87  1  0  0  0  0
  6  7  1  0  0  0  0
  6 88  1  0  0  0  0
  7  8  1  0  0  0  0
  7 89  1  0  0  0  0
  8  9  1  0  0  0  0
  8 90  1  0  0  0  0
  9 10  1  0  0  0  0
  9 91  1  0  0  0  0
 10 11  1  0  0  0  0
 10 92  1  0  0  0  0
 11 12  1  0  0  0  0
 11 93  1  0  0  0  0
 12 13  1  0  0  0  0
 12 94  1  0  0  0  0
 12 95  1  0  0  0  0
 13 14  1  0  0  0  0
 13 96  1  0  0  0  0
 13 97  1  0  0  0  0
 14 15  1  0  0  0  0
 14 98  1  0  0  0  0
 14 99  1  0  0  0  0
 15 16  1  0  0  0  0
 15100  1  0  0  0  0
 15101  1  0  0  0  0
 16 17  1  0  0  0  0
 16102  1  0  0  0  0
 16103  1  0  0  0  0
 17 18  1  0  0  0  0
 17104  1  0  0  0  0
 17105  1  0  0  0  0
 18 19  1  0  0  0  0
 18106  1  0  0  0  0
 18107  1  0  0  0  0
 19 20  1  0  0  0  0
 19108  1  0  0  0  0
 19109  1  0  0  0  0
 20 21  1  0  0  0  0
 20110  1  0  0  0  0
 20111  1  0  0  0  0
 21 22  1  0  0  0  0
 21112  1  0  0  0  0
 21113  1  0  0  0  0
 22 23  1  0  0  0  0
 22114  1  0  0  0  0
 22115  1  0  0  0  0
 23 24  1  0  0  0  0
 23116  1  0  0  0  0
 23117  1  0  0  0  0
 24 25  1  0  0  0  0
 24118  1  0  0  0  0
 24119  1  0  0  0  0
 25 26  1  0  0  0  0
 25120  1  0  0  0  0
 25121  1  0  0  0  0
 26 27  1  0  0  0  0
 26122  1  0  0  0  0
 26123  1  0  0  0  0
 27 28  1  0  0  0  0
 27124  1  0  0  0  0
 27125  1  0  0  0  0
 28 29  1  0  0  0  0
 28126  1  0  0  0  0
 28127  1  0  0  0  0
 29 30  1  0  0  0  0
 29128  1  0  0  0  0
 29129  1  0  0  0  0
 30 31  1  0  0  0  0
 30130  1  0  0  0  0
 30131  1  0  0  0  0
 31 32  1  0  0  0  0
 31132  1  0  0  0  0
 31133  1  0  0  0  0
 32 33  1  0  0  0  0
 32134  1  0  0  0  0
 32135  1  0  0  0  0
 33 34  1  0  0  0  0
 33136  1  0  0  0  0
 33137  1  0  0  0  0
 34 35  1  0  0  0  0
 34138  1  0  0  0  0
 34139  1  0  0  0  0
 35 36  1  0  0  0  0
 35140  1  0  0  0  0
 35141  1  0  0  0  0
 36 37  1  0  0  0  0
 36142  1  0  0  0  0
 36143  1  0  0  0  0
 37 38  1  0  0  0  0
 37144  1  0  0  0  0
 37145  1  0  0  0  0
 38 39  1  0  0  0  0
 38146  1  0  0  0  0
 38147  1  0  0  0  0
 39 40  1  0  0  0  0
 39148  1  0  0  0  0
 39149  1  0  0  0  0
 40 41  1  0  0  0  0
 40150  1  0  0  0  0
 40151  1  0  0  0  0
 41 42  1  0  0  0  0
 41152  1  0  0  0  0
 41153  1  0  0  0  0
 42 43  1  0  0  0  0
 42154  1  0  0  0  0
 42155  1  0  0  0  0
 43 44  1  0  0  0  0
 43156  1  0  0  0  0
 43157  1  0  0  0  0
 44 45  1  0  0  0  0
 44158  1  0  0  0  0
 44159  1  0  0  0  0
 45 46  1  0  0  0  0
 45160  1  0  0  0  0
 45161  1  0  0  0  0
 46 47  1  0  0  0  0
 46162  1  0  0  0  0
 46163  1  0  0  0  0
 47 48  1  0  0  0  0
 47164  1  0  0  0  0
 47165  1  0  0  0  0
 48 49  1  0  0  0  0
 48166  1  0  0  0  0
 48167  1  0  0  0  0
 49 50  1  0  0  0  0
 49168  1  0  0  0  0
 49169  1  0  0  0  0
 50 51  1  0  0  0  0
 50170  1  0  0  0  0
 50171  1  0  0  0  0
 51 52  1  0  0  0  0
 51172  1  0  0  0  0
 51173  1  0  0  0  0
 52 53  1  0  0  0  0
 52174  1  0  0  0  0
 52175  1  0  0  0  0
 53 54  1  0  0  0  0
 53176  1  0  0  0  0
 53177  1  0  0  0  0
 54 55  1  0  0  0  0
 54178  1  0  0  0  0
 54179  1  0  0  0  0
 55 56  1  0  0  0  0
 55180  1  0  0  0  0
 55181  1  0  0  0  0
 56 57  1  0  0  0  0
 56182  1  0  0  0  0
 56183  1  0  0  0  0
 57 58  1  0  0  0  0
 57184  1  0  0  0  0
 57185  1  0  0  0  0
 58 59  1  0  0  0  0
 58186  1  0  0  0  0
 58187  1  0  0  0  0
 59 60  1  0  0  0  0
 59188  1  0  0  0  0
 59189  1  0  0  0  0
 60 61  1  0  0  0  0
 60190  1  0  0  0  0
 60191  1  0  0  0  0
 61 62  1  0  0  0  0
 61192  1  0  0  0  0
 61193  1  0  0  0  0
 62 63  1  0  0  0  0
 62194  1  0  0  0  0
 62195  1  0  0  0  0
 63 64  1  0  0  0  0
 63196  1  0  0  0  0
 63197  1  0  0  0  0
 64 65  1  0  0  0  0
 64198  1  0  0  0  0
 64199  1  0  0  0  0
 65 66  1  0  0  0  0
 65200  1  0  0  0  0
 65201  1  0  0  0  0
 66 67  1  0  0  0  0
 66202  1  0  0  0  0
 66203  1  0  0  0  0
 67 68  1  0  0  0  0
 67204  1  0  0  0  0
 67205  1  0  0  0  0
 68 69  1  0  0  0  0
 68206  1  0  0  0  0
 68207  1  0  0  0  0
 69 70  1  0  0  0  0
 69208  1  0  0  0  0
 69209  1  0  0  0  0
 70 71  1  0  0  0  0
 70210  1  0  0  0  0
 70211  1  0  0  0  0
 71 72  1  0  0  0  0
 71212  1  0  0  0  0
 71213  1  0  0  0  0
 72 73  1  0  0  0  0
 72214  1  0  0  0  0
 72215  1  0  0  0  0
 73 74  1  0  0  0  0
 73216  1  0  0  0  0
 73217  1  0  0  0  0
 74 75  1  0  0  0  0
 74218  1  0  0  0  0
 74219  1  0  0  0  0
 75 76  1  0  0  0  0
 75220  1  0  0  0  0
 75221  1  0  0  0  0
 76 77  1  0  0  0  0
 76222  1  0  0  0  0
 76223  1  0  0  0  0
 77 78  1  0  0  0  0
 77224  1  0  0  0  0
 77225  1  0  0  0  0
 78 79  1  0  0  0  0
 78226  1  0  0  0  0
 78227  1  0  0  0  0
 79 80  1  0  0  0  0
 79228  1  0  0  0  0
 79229  1  0  0  0  0
 80230  1  0  0  0  0
 80231  1  0  0  0  0
 80232  1  0  0  0  0
M  END
$$$$
