
 OpenBabel04232216483D

 56 57  0  0  1  0  0  0  0  0999 V2000
    2.7994   -1.4644    1.3851 C   0  0  0  0  0  0  0  0  0  0  0  0
    4.1851   -0.8556    1.3639 C   0  0  0  0  0  0  0  0  0  0  0  0
    4.2308    0.4821    1.1555 C   0  0  0  0  0  0  0  0  0  0  0  0
    5.3429    1.0443    0.4110 C   0  0  0  0  0  0  0  0  0  0  0  0
    6.0408    0.2448   -0.4293 C   0  0  0  0  0  0  0  0  0  0  0  0
    5.7913   -1.2730   -0.3942 C   0  0  3  0  0  0  0  0  0  0  0  0
    5.0338   -1.9922   -1.5090 C   0  0  0  0  0  0  0  0  0  0  0  0
    3.7796   -1.3804   -2.1052 C   0  0  0  0  0  0  0  0  0  0  0  0
    3.4119   -2.2492   -3.3113 C   0  0  0  0  0  0  0  0  0  0  0  0
    2.0682   -1.8893   -3.9186 C   0  0  0  0  0  0  0  0  0  0  0  0
    1.8070   -2.7790   -5.1331 C   0  0  0  0  0  0  0  0  0  0  0  0
    0.4679   -2.4541   -5.7813 C   0  0  0  0  0  0  0  0  0  0  0  0
    0.2215   -3.3390   -6.9912 C   0  0  0  0  0  0  0  0  0  0  0  0
    7.3067    0.6994   -1.0207 C   0  0  0  0  0  0  0  0  0  0  0  0
    8.0276   -0.1201   -1.8152 C   0  0  0  0  0  0  0  0  0  0  0  0
    9.2442   -0.6229   -1.1980 C   0  0  0  0  0  0  0  0  0  0  0  0
    9.4813   -1.9357   -0.9366 C   0  0  0  0  0  0  0  0  0  0  0  0
    8.7730   -3.1608   -1.5022 C   0  0  0  0  0  0  0  0  0  0  0  0
   10.3147   -2.2356    0.2228 C   0  0  0  0  0  0  0  0  0  0  0  0
   11.6290   -1.9794    0.1041 C   0  0  0  0  0  0  0  0  0  0  0  0
    9.7727   -2.8125    1.4680 C   0  0  0  0  0  0  0  0  0  0  0  0
    8.5017   -2.7632    1.9677 C   0  0  0  0  0  0  0  0  0  0  0  0
    7.4264   -2.1400    1.3786 N   0  0  0  0  0  0  0  0  0  0  0  0
    6.2799   -2.0954    1.9142 N   0  0  0  0  0  0  0  0  0  0  0  0
    5.2806   -1.6618    0.9534 N   0  0  0  0  0  0  0  0  0  0  0  0
    2.0598   -0.7473    0.9919 H   0  0  0  0  0  0  0  0  0  0  0  0
    2.4705   -1.7718    2.3765 H   0  0  0  0  0  0  0  0  0  0  0  0
    2.7449   -2.3221    0.7037 H   0  0  0  0  0  0  0  0  0  0  0  0
    3.3760    1.1279    1.3330 H   0  0  0  0  0  0  0  0  0  0  0  0
    5.5667    2.0966    0.5559 H   0  0  0  0  0  0  0  0  0  0  0  0
    6.7508   -1.7487   -0.5011 H   0  0  0  0  0  0  0  0  0  0  0  0
    4.8041   -3.0114   -1.1653 H   0  0  0  0  0  0  0  0  0  0  0  0
    5.7374   -2.1245   -2.3397 H   0  0  0  0  0  0  0  0  0  0  0  0
    3.9585   -0.3493   -2.4262 H   0  0  0  0  0  0  0  0  0  0  0  0
    2.9588   -1.3727   -1.3855 H   0  0  0  0  0  0  0  0  0  0  0  0
    3.3949   -3.3060   -3.0121 H   0  0  0  0  0  0  0  0  0  0  0  0
    4.1973   -2.1529   -4.0731 H   0  0  0  0  0  0  0  0  0  0  0  0
    2.0622   -0.8342   -4.2125 H   0  0  0  0  0  0  0  0  0  0  0  0
    1.2776   -2.0323   -3.1730 H   0  0  0  0  0  0  0  0  0  0  0  0
    1.8237   -3.8333   -4.8281 H   0  0  0  0  0  0  0  0  0  0  0  0
    2.6138   -2.6471   -5.8654 H   0  0  0  0  0  0  0  0  0  0  0  0
    0.4505   -1.4027   -6.0896 H   0  0  0  0  0  0  0  0  0  0  0  0
   -0.3404   -2.5964   -5.0551 H   0  0  0  0  0  0  0  0  0  0  0  0
    1.0034   -3.1978   -7.7445 H   0  0  0  0  0  0  0  0  0  0  0  0
   -0.7418   -3.0952   -7.4481 H   0  0  0  0  0  0  0  0  0  0  0  0
    0.2078   -4.3961   -6.7064 H   0  0  0  0  0  0  0  0  0  0  0  0
    7.8221    1.3945   -0.3555 H   0  0  0  0  0  0  0  0  0  0  0  0
    7.5131   -0.8310   -2.4613 H   0  0  0  0  0  0  0  0  0  0  0  0
    9.8266    0.1210   -0.6485 H   0  0  0  0  0  0  0  0  0  0  0  0
    7.7442   -2.9767   -1.8113 H   0  0  0  0  0  0  0  0  0  0  0  0
    8.7241   -3.9773   -0.7809 H   0  0  0  0  0  0  0  0  0  0  0  0
    9.3163   -3.5375   -2.3786 H   0  0  0  0  0  0  0  0  0  0  0  0
   12.0449   -1.5544   -0.8133 H   0  0  0  0  0  0  0  0  0  0  0  0
   12.3407   -2.1533    0.9019 H   0  0  0  0  0  0  0  0  0  0  0  0
   10.5032   -3.3780    2.0368 H   0  0  0  0  0  0  0  0  0  0  0  0
    8.3024   -3.2967    2.8893 H   0  0  0  0  0  0  0  0  0  0  0  0
  1  2  1  0  0  0  0
  1 26  1  0  0  0  0
  1 27  1  0  0  0  0
  1 28  1  0  0  0  0
  2  3  2  0  0  0  0
  2 25  1  0  0  0  0
  3  4  1  0  0  0  0
  3 29  1  0  0  0  0
  4  5  2  0  0  0  0
  4 30  1  0  0  0  0
  5  6  1  0  0  0  0
  5 14  1  0  0  0  0
  6  7  1  0  0  0  0
  6 25  1  0  0  0  0
  6 31  1  0  0  0  0
  7  8  1  0  0  0  0
  7 32  1  0  0  0  0
  7 33  1  0  0  0  0
  8  9  1  0  0  0  0
  8 34  1  0  0  0  0
  8 35  1  0  0  0  0
  9 10  1  0  0  0  0
  9 36  1  0  0  0  0
  9 37  1  0  0  0  0
 10 11  1  0  0  0  0
 10 38  1  0  0  0  0
 10 39  1  0  0  0  0
 11 12  1  0  0  0  0
 11 40  1  0  0  0  0
 11 41  1  0  0  0  0
 12 13  1  0  0  0  0
 12 42  1  0  0  0  0
 12 43  1  0  0  0  0
 13 44  1  0  0  0  0
 13 45  1  0  0  0  0
 13 46  1  0  0  0  0
 14 15  2  3  0  0  0
 14 47  1  0  0  0  0
 15 16  1  0  0  0  0
 15 48  1  0  0  0  0
 16 17  2  3  0  0  0
 16 49  1  0  0  0  0
 17 18  1  0  0  0  0
 17 19  1  0  0  0  0
 18 50  1  0  0  0  0
 18 51  1  0  0  0  0
 18 52  1  0  0  0  0
 19 20  2  0  0  0  0
 19 21  1  0  0  0  0
 20 53  1  0  0  0  0
 20 54  1  0  0  0  0
 21 22  2  3  0  0  0
 21 55  1  0  0  0  0
 22 23  1  0  0  0  0
 22 56  1  0  0  0  0
 23 24  2  3  0  0  0
 24 25  1  0  0  0  0
M  END
$$$$
