
 OpenBabel04232216493D

 51 54  0  0  0  0  0  0  0  0999 V2000
    1.2412   -3.1675    0.2021 C   0  0  0  0  0  0  0  0  0  0  0  0
    2.6576   -2.5739    0.0597 C   0  0  0  0  0  0  0  0  0  0  0  0
    3.6873   -3.6465   -0.0295 C   0  0  0  0  0  0  0  0  0  0  0  0
    5.0333   -3.7069   -0.1504 C   0  0  0  0  0  0  0  0  0  0  0  0
    6.0896   -2.6440    0.1389 C   0  0  0  0  0  0  0  0  0  0  0  0
    7.1184   -2.4641   -0.6824 N   0  0  0  0  0  0  0  0  0  0  0  0
    7.7579   -1.2273   -0.5856 C   0  0  0  0  0  0  0  0  0  0  0  0
    8.9771   -0.6873   -0.2779 C   0  0  0  0  0  0  0  0  0  0  0  0
    8.6798    0.7858   -0.4201 C   0  0  0  0  0  0  0  0  0  0  0  0
    8.9467    1.6119   -1.3854 N   0  0  0  0  0  0  0  0  0  0  0  0
   10.2693    1.7266   -1.6735 C   0  0  0  0  0  0  0  0  0  0  0  0
   11.0578    0.7129   -1.7134 N   0  0  0  0  0  0  0  0  0  0  0  0
   11.7385    0.6428   -0.5473 C   0  0  0  0  0  0  0  0  0  0  0  0
   12.8121    1.6862   -0.2518 C   0  0  0  0  0  0  0  0  0  0  0  0
   11.3650   -0.1888    0.3803 N   0  0  0  0  0  0  0  0  0  0  0  0
   10.3366   -1.1280    0.1857 C   0  0  0  0  0  0  0  0  0  0  0  0
   10.6199   -2.3266    0.7535 C   0  0  0  0  0  0  0  0  0  0  0  0
    9.6557   -3.3208    1.1661 C   0  0  0  0  0  0  0  0  0  0  0  0
    8.6329   -2.9047    1.9238 C   0  0  0  0  0  0  0  0  0  0  0  0
    7.4921   -3.5949    2.2079 N   0  0  0  0  0  0  0  0  0  0  0  0
    6.4974   -2.8806    2.5024 N   0  0  0  0  0  0  0  0  0  0  0  0
    6.0036   -2.0771    1.4280 N   0  0  0  0  0  0  0  0  0  0  0  0
    4.6782   -1.5908    1.8595 C   0  0  0  0  0  0  0  0  0  0  0  0
    3.9935   -0.6518    0.8615 C   0  0  0  0  0  0  0  0  0  0  0  0
    4.3296    0.6533    0.9187 C   0  0  0  0  0  0  0  0  0  0  0  0
    3.7185    1.8370    0.3505 C   0  0  0  0  0  0  0  0  0  0  0  0
    2.5136    1.9716   -0.2040 C   0  0  0  0  0  0  0  0  0  0  0  0
    1.5411    0.9304   -0.4535 C   0  0  0  0  0  0  0  0  0  0  0  0
    1.6645   -0.3893   -0.2943 C   0  0  0  0  0  0  0  0  0  0  0  0
    2.8119   -1.2130    0.1606 C   0  0  0  0  0  0  0  0  0  0  0  0
    1.2532   -4.1167    0.7507 H   0  0  0  0  0  0  0  0  0  0  0  0
    0.7551   -3.3252   -0.7643 H   0  0  0  0  0  0  0  0  0  0  0  0
    0.5963   -2.5258    0.8219 H   0  0  0  0  0  0  0  0  0  0  0  0
    3.2205   -4.6374   -0.0292 H   0  0  0  0  0  0  0  0  0  0  0  0
    5.4940   -4.6847   -0.2588 H   0  0  0  0  0  0  0  0  0  0  0  0
    7.0054   -0.5026   -0.9168 H   0  0  0  0  0  0  0  0  0  0  0  0
    7.9096    1.1335    0.2865 H   0  0  0  0  0  0  0  0  0  0  0  0
   10.6241    2.7468   -1.4364 H   0  0  0  0  0  0  0  0  0  0  0  0
   12.3461    2.6733   -0.1444 H   0  0  0  0  0  0  0  0  0  0  0  0
   13.5276    1.7423   -1.0741 H   0  0  0  0  0  0  0  0  0  0  0  0
   13.3367    1.4809    0.6831 H   0  0  0  0  0  0  0  0  0  0  0  0
   11.6443   -2.5309    1.0765 H   0  0  0  0  0  0  0  0  0  0  0  0
    9.7807   -4.3437    0.8274 H   0  0  0  0  0  0  0  0  0  0  0  0
    8.6230   -1.8657    2.2439 H   0  0  0  0  0  0  0  0  0  0  0  0
    4.7820   -1.0759    2.8231 H   0  0  0  0  0  0  0  0  0  0  0  0
    4.0399   -2.4440    2.1231 H   0  0  0  0  0  0  0  0  0  0  0  0
    5.1846    0.9233    1.5396 H   0  0  0  0  0  0  0  0  0  0  0  0
    4.2736    2.7514    0.4920 H   0  0  0  0  0  0  0  0  0  0  0  0
    2.1831    2.9582   -0.5098 H   0  0  0  0  0  0  0  0  0  0  0  0
    0.6107    1.2987   -0.8789 H   0  0  0  0  0  0  0  0  0  0  0  0
    0.7927   -0.9370   -0.6557 H   0  0  0  0  0  0  0  0  0  0  0  0
  1  2  1  0  0  0  0
  1 31  1  0  0  0  0
  1 32  1  0  0  0  0
  1 33  1  0  0  0  0
  2  3  1  0  0  0  0
  2 30  2  0  0  0  0
  3  4  2  0  0  0  0
  3 34  1  0  0  0  0
  4  5  1  0  0  0  0
  4 35  1  0  0  0  0
  5  6  2  3  0  0  0
  5 22  1  0  0  0  0
  6  7  1  0  0  0  0
  7  8  2  3  0  0  0
  7 36  1  0  0  0  0
  8  9  1  0  0  0  0
  8 16  1  0  0  0  0
  9 10  2  0  0  0  0
  9 37  1  0  0  0  0
 10 11  1  0  0  0  0
 11 12  2  0  0  0  0
 11 38  1  0  0  0  0
 12 13  1  0  0  0  0
 13 14  1  0  0  0  0
 13 15  2  0  0  0  0
 14 39  1  0  0  0  0
 14 40  1  0  0  0  0
 14 41  1  0  0  0  0
 15 16  1  0  0  0  0
 16 17  2  3  0  0  0
 17 18  1  0  0  0  0
 17 42  1  0  0  0  0
 18 19  2  3  0  0  0
 18 43  1  0  0  0  0
 19 20  1  0  0  0  0
 19 44  1  0  0  0  0
 20 21  2  3  0  0  0
 21 22  1  0  0  0  0
 22 23  1  0  0  0  0
 23 24  1  0  0  0  0
 23 45  1  0  0  0  0
 23 46  1  0  0  0  0
 24 25  2  0  0  0  0
 24 30  1  0  0  0  0
 25 26  1  0  0  0  0
 25 47  1  0  0  0  0
 26 27  2  0  0  0  0
 26 48  1  0  0  0  0
 27 28  1  0  0  0  0
 27 49  1  0  0  0  0
 28 29  2  0  0  0  0
 28 50  1  0  0  0  0
 29 30  1  0  0  0  0
 29 51  1  0  0  0  0
M  END
$$$$
