
 OpenBabel04232216553D

 20 21  0  0  0  0  0  0  0  0999 V2000
    1.6336    0.6669   -0.3594 C   0  0  0  0  0  0  0  0  0  0  0  0
    2.9573    0.4454    0.2168 N   0  0  0  0  0  0  0  0  0  0  0  0
    2.9790    0.1478    1.4847 C   0  0  0  0  0  0  0  0  0  0  0  0
    2.8488   -0.5460    2.5841 C   0  0  0  0  0  0  0  0  0  0  0  0
    3.5844    0.2567    3.5970 C   0  0  0  0  0  0  0  0  0  0  0  0
    3.2823   -0.0383    5.0392 C   0  0  0  0  0  0  0  0  0  0  0  0
    4.4674    1.1792    3.3005 N   0  0  0  0  0  0  0  0  0  0  0  0
    4.6776    1.3713    1.9305 N   0  0  0  0  0  0  0  0  0  0  0  0
    5.4998    2.5221    1.5670 C   0  0  0  0  0  0  0  0  0  0  0  0
    3.4406    1.3846    1.2125 N   0  0  0  0  0  0  0  0  0  0  0  0
    1.4728   -0.0546   -1.1674 H   0  0  0  0  0  0  0  0  0  0  0  0
    1.5287    1.6758   -0.7678 H   0  0  0  0  0  0  0  0  0  0  0  0
    0.8249    0.5054    0.3697 H   0  0  0  0  0  0  0  0  0  0  0  0
    2.4821   -1.5433    2.7107 H   0  0  0  0  0  0  0  0  0  0  0  0
    2.4359   -0.7257    5.1251 H   0  0  0  0  0  0  0  0  0  0  0  0
    3.0317    0.8917    5.5573 H   0  0  0  0  0  0  0  0  0  0  0  0
    4.1600   -0.4921    5.5062 H   0  0  0  0  0  0  0  0  0  0  0  0
    6.1748    2.7857    2.3921 H   0  0  0  0  0  0  0  0  0  0  0  0
    4.9165    3.4167    1.3261 H   0  0  0  0  0  0  0  0  0  0  0  0
    6.1380    2.2701    0.7136 H   0  0  0  0  0  0  0  0  0  0  0  0
  1  2  1  0  0  0  0
  1 11  1  0  0  0  0
  1 12  1  0  0  0  0
  1 13  1  0  0  0  0
  2  3  1  0  0  0  0
  2 10  1  0  0  0  0
  3  4  2  0  0  0  0
  3 10  1  0  0  0  0
  4  5  1  0  0  0  0
  4 14  1  0  0  0  0
  5  6  1  0  0  0  0
  5  7  2  0  0  0  0
  6 15  1  0  0  0  0
  6 16  1  0  0  0  0
  6 17  1  0  0  0  0
  7  8  1  0  0  0  0
  8  9  1  0  0  0  0
  8 10  1  0  0  0  0
  9 18  1  0  0  0  0
  9 19  1  0  0  0  0
  9 20  1  0  0  0  0
M  END
$$$$
