
 OpenBabel04232216513D

 67 67  0  0  1  0  0  0  0  0999 V2000
    2.5665   -2.8933    3.4823 C   0  0  0  0  0  0  0  0  0  0  0  0
    3.2173   -3.0984    2.1336 C   0  0  0  0  0  0  0  0  0  0  0  0
    4.4775   -2.3177    1.7312 C   0  0  0  0  0  0  0  0  0  0  0  0
    5.8321   -1.9136    2.5499 C   0  0  3  0  0  0  0  0  0  0  0  0
    6.4607   -1.0190    1.3910 C   0  0  0  0  0  0  0  0  0  0  0  0
    5.3559   -0.9983    3.6920 C   0  0  0  0  0  0  0  0  0  0  0  0
    6.3101    0.1508    3.9949 C   0  0  0  0  0  0  0  0  0  0  0  0
    7.1904   -0.1801    5.1640 C   0  0  0  0  0  0  0  0  0  0  0  0
    8.6440    0.0311    4.7978 C   0  0  0  0  0  0  0  0  0  0  0  0
    9.5093   -0.1989    6.0307 C   0  0  0  0  0  0  0  0  0  0  0  0
   10.8674   -0.7658    5.6543 C   0  0  0  0  0  0  0  0  0  0  0  0
   10.7328   -2.2966    5.7423 C   0  0  0  0  0  0  0  0  0  0  0  0
   11.2036   -2.9351    6.6773 O   0  0  0  0  0  0  0  0  0  0  0  0
    9.8343   -2.8888    4.7039 C   0  0  0  0  0  0  0  0  0  0  0  0
    8.5727   -3.3480    4.9802 C   0  0  0  0  0  0  0  0  0  0  0  0
    8.4202   -3.7504    6.3736 N   0  0  0  0  0  0  0  0  0  0  0  0
    7.7223   -4.9275    6.9204 C   0  0  0  0  0  0  0  0  0  0  0  0
    8.2750   -5.5961    8.2661 C   0  0  0  0  0  0  0  0  0  0  0  0
    8.5470   -4.7415    9.5310 C   0  0  0  0  0  0  0  0  0  0  0  0
    8.5525   -5.4720   10.9267 C   0  0  0  0  0  0  0  0  0  0  0  0
    9.6109   -6.5707   11.1613 C   0  0  0  0  0  0  0  0  0  0  0  0
    9.6944   -7.0648   12.6322 C   0  0  0  0  0  0  0  0  0  0  0  0
   10.7570   -8.1573   12.7981 C   0  0  0  0  0  0  0  0  0  0  0  0
   10.9060   -8.6746   14.2076 C   0  0  0  0  0  0  0  0  0  0  0  0
   10.2810   -8.2575   15.1777 O   0  0  0  0  0  0  0  0  0  0  0  0
    7.7768   -3.6499    3.8506 N   0  0  0  0  0  0  0  0  0  0  0  0
    6.8613   -3.1685    2.9896 C   0  0  0  0  0  0  0  0  0  0  0  0
    1.7309   -3.6019    3.5779 H   0  0  0  0  0  0  0  0  0  0  0  0
    2.1335   -1.8920    3.5818 H   0  0  0  0  0  0  0  0  0  0  0  0
    3.2587   -3.0832    4.2999 H   0  0  0  0  0  0  0  0  0  0  0  0
    2.4428   -2.8132    1.3960 H   0  0  0  0  0  0  0  0  0  0  0  0
    3.3766   -4.1653    1.9550 H   0  0  0  0  0  0  0  0  0  0  0  0
    4.0469   -1.3468    1.4146 H   0  0  0  0  0  0  0  0  0  0  0  0
    4.7849   -2.7866    0.7852 H   0  0  0  0  0  0  0  0  0  0  0  0
    5.9544   -0.0348    1.3548 H   0  0  0  0  0  0  0  0  0  0  0  0
    6.2782   -1.4196    0.3827 H   0  0  0  0  0  0  0  0  0  0  0  0
    7.5343   -0.8576    1.4733 H   0  0  0  0  0  0  0  0  0  0  0  0
    5.1268   -1.5923    4.5820 H   0  0  0  0  0  0  0  0  0  0  0  0
    4.4067   -0.5212    3.4120 H   0  0  0  0  0  0  0  0  0  0  0  0
    5.7402    1.0579    4.2228 H   0  0  0  0  0  0  0  0  0  0  0  0
    6.9347    0.4296    3.1446 H   0  0  0  0  0  0  0  0  0  0  0  0
    7.0353   -1.2103    5.4987 H   0  0  0  0  0  0  0  0  0  0  0  0
    6.9130    0.4407    6.0215 H   0  0  0  0  0  0  0  0  0  0  0  0
    8.8155    1.0159    4.3920 H   0  0  0  0  0  0  0  0  0  0  0  0
    8.9018   -0.6787    3.9747 H   0  0  0  0  0  0  0  0  0  0  0  0
    8.9997   -0.8664    6.7426 H   0  0  0  0  0  0  0  0  0  0  0  0
    9.6030    0.7655    6.5486 H   0  0  0  0  0  0  0  0  0  0  0  0
   11.6328   -0.4015    6.3412 H   0  0  0  0  0  0  0  0  0  0  0  0
   11.1737   -0.4927    4.6414 H   0  0  0  0  0  0  0  0  0  0  0  0
   10.1988   -2.7472    3.6971 H   0  0  0  0  0  0  0  0  0  0  0  0
    9.3131   -3.6480    6.8759 H   0  0  0  0  0  0  0  0  0  0  0  0
    7.7291   -5.7225    6.1666 H   0  0  0  0  0  0  0  0  0  0  0  0
    6.6851   -4.6393    7.0991 H   0  0  0  0  0  0  0  0  0  0  0  0
    9.1846   -6.1705    8.0455 H   0  0  0  0  0  0  0  0  0  0  0  0
    7.5212   -6.3453    8.5513 H   0  0  0  0  0  0  0  0  0  0  0  0
    7.7799   -3.9619    9.5943 H   0  0  0  0  0  0  0  0  0  0  0  0
    9.5124   -4.2352    9.4172 H   0  0  0  0  0  0  0  0  0  0  0  0
    7.5575   -5.8910   11.1250 H   0  0  0  0  0  0  0  0  0  0  0  0
    8.7078   -4.6985   11.6935 H   0  0  0  0  0  0  0  0  0  0  0  0
   10.5969   -6.1895   10.8751 H   0  0  0  0  0  0  0  0  0  0  0  0
    9.3868   -7.4289   10.5186 H   0  0  0  0  0  0  0  0  0  0  0  0
    8.7203   -7.4542   12.9570 H   0  0  0  0  0  0  0  0  0  0  0  0
    9.9269   -6.2254   13.3027 H   0  0  0  0  0  0  0  0  0  0  0  0
   11.7397   -7.7768   12.5029 H   0  0  0  0  0  0  0  0  0  0  0  0
   10.5156   -9.0187   12.1697 H   0  0  0  0  0  0  0  0  0  0  0  0
   11.6481   -9.4848   14.3336 H   0  0  0  0  0  0  0  0  0  0  0  0
    6.8167   -3.9052    2.1593 H   0  0  0  0  0  0  0  0  0  0  0  0
  1  2  1  0  0  0  0
  1 28  1  0  0  0  0
  1 29  1  0  0  0  0
  1 30  1  0  0  0  0
  2  3  1  0  0  0  0
  2 31  1  0  0  0  0
  2 32  1  0  0  0  0
  3  4  1  0  0  0  0
  3 33  1  0  0  0  0
  3 34  1  0  0  0  0
  4  5  1  0  0  0  0
  4  6  1  0  0  0  0
  4 27  1  0  0  0  0
  5 35  1  0  0  0  0
  5 36  1  0  0  0  0
  5 37  1  0  0  0  0
  6  7  1  0  0  0  0
  6 38  1  0  0  0  0
  6 39  1  0  0  0  0
  7  8  1  0  0  0  0
  7 40  1  0  0  0  0
  7 41  1  0  0  0  0
  8  9  1  0  0  0  0
  8 42  1  0  0  0  0
  8 43  1  0  0  0  0
  9 10  1  0  0  0  0
  9 44  1  0  0  0  0
  9 45  1  0  0  0  0
 10 11  1  0  0  0  0
 10 46  1  0  0  0  0
 10 47  1  0  0  0  0
 11 12  1  0  0  0  0
 11 48  1  0  0  0  0
 11 49  1  0  0  0  0
 12 13  2  0  0  0  0
 12 14  1  0  0  0  0
 14 15  2  3  0  0  0
 14 50  1  0  0  0  0
 15 16  1  0  0  0  0
 15 26  1  0  0  0  0
 16 17  1  0  0  0  0
 16 51  1  0  0  0  0
 17 18  1  0  0  0  0
 17 52  1  0  0  0  0
 17 53  1  0  0  0  0
 18 19  1  0  0  0  0
 18 54  1  0  0  0  0
 18 55  1  0  0  0  0
 19 20  1  0  0  0  0
 19 56  1  0  0  0  0
 19 57  1  0  0  0  0
 20 21  1  0  0  0  0
 20 58  1  0  0  0  0
 20 59  1  0  0  0  0
 21 22  1  0  0  0  0
 21 60  1  0  0  0  0
 21 61  1  0  0  0  0
 22 23  1  0  0  0  0
 22 62  1  0  0  0  0
 22 63  1  0  0  0  0
 23 24  1  0  0  0  0
 23 64  1  0  0  0  0
 23 65  1  0  0  0  0
 24 25  2  0  0  0  0
 24 66  1  0  0  0  0
 26 27  2  3  0  0  0
 27 67  1  0  0  0  0
M  END
$$$$
