
 OpenBabel04232216443D

 37 38  0  0  0  0  0  0  0  0999 V2000
    1.5989   -0.9420    0.1061 C   0  0  0  0  0  0  0  0  0  0  0  0
    3.0155   -0.4610    0.2958 C   0  0  0  0  0  0  0  0  0  0  0  0
    3.4633    0.8231    0.2876 C   0  0  0  0  0  0  0  0  0  0  0  0
    2.5906    2.0965    0.1450 C   0  0  0  0  0  0  0  0  0  0  0  0
    1.0830    2.1658   -0.0120 C   0  0  0  0  0  0  0  0  0  0  0  0
    4.8749    1.1133    0.4401 N   0  0  0  0  0  0  0  0  0  0  0  0
    5.4130    2.4996    0.3552 C   0  0  0  0  0  0  0  0  0  0  0  0
    5.7004    2.9389   -1.0784 C   0  0  0  0  0  0  0  0  0  0  0  0
    5.7777    0.0214    0.5500 C   0  0  0  0  0  0  0  0  0  0  0  0
    7.1157    0.1274    0.3714 C   0  0  0  0  0  0  0  0  0  0  0  0
    7.8760   -1.0941    0.0550 C   0  0  0  0  0  0  0  0  0  0  0  0
    7.7583   -1.5747   -1.3806 C   0  0  0  0  0  0  0  0  0  0  0  0
    8.4128   -1.7260    1.0511 N   0  0  0  0  0  0  0  0  0  0  0  0
    8.4834   -3.0879    0.9695 C   0  0  0  0  0  0  0  0  0  0  0  0
    7.4369   -3.8535    0.8261 N   0  0  0  0  0  0  0  0  0  0  0  0
    6.1907   -3.2211    0.5420 N   0  0  0  0  0  0  0  0  0  0  0  0
    5.8757   -2.3280    1.3577 N   0  0  0  0  0  0  0  0  0  0  0  0
    5.0931   -1.3421    0.7762 C   0  0  0  0  0  0  0  0  0  0  0  0
    3.8240   -1.5487    0.5961 N   0  0  0  0  0  0  0  0  0  0  0  0
    0.8463   -0.1699    0.0240 H   0  0  0  0  0  0  0  0  0  0  0  0
    1.3016   -1.5646    0.9569 H   0  0  0  0  0  0  0  0  0  0  0  0
    1.5209   -1.5516   -0.8025 H   0  0  0  0  0  0  0  0  0  0  0  0
    2.9796    2.6714   -0.7020 H   0  0  0  0  0  0  0  0  0  0  0  0
    2.7859    2.6805    1.0536 H   0  0  0  0  0  0  0  0  0  0  0  0
    0.7462    1.7147   -0.9478 H   0  0  0  0  0  0  0  0  0  0  0  0
    0.7876    3.2236   -0.0498 H   0  0  0  0  0  0  0  0  0  0  0  0
    0.5647    1.7318    0.8450 H   0  0  0  0  0  0  0  0  0  0  0  0
    6.3294    2.5923    0.9503 H   0  0  0  0  0  0  0  0  0  0  0  0
    4.7376    3.2171    0.8275 H   0  0  0  0  0  0  0  0  0  0  0  0
    6.5250    2.3734   -1.5218 H   0  0  0  0  0  0  0  0  0  0  0  0
    5.9812    3.9983   -1.0874 H   0  0  0  0  0  0  0  0  0  0  0  0
    4.8365    2.8222   -1.7391 H   0  0  0  0  0  0  0  0  0  0  0  0
    7.6566    1.0490    0.2417 H   0  0  0  0  0  0  0  0  0  0  0  0
    7.4815   -0.7391   -2.0265 H   0  0  0  0  0  0  0  0  0  0  0  0
    6.9772   -2.3289   -1.4907 H   0  0  0  0  0  0  0  0  0  0  0  0
    8.7070   -1.9885   -1.7184 H   0  0  0  0  0  0  0  0  0  0  0  0
    9.4748   -3.5515    1.1226 H   0  0  0  0  0  0  0  0  0  0  0  0
  1  2  1  0  0  0  0
  1 20  1  0  0  0  0
  1 21  1  0  0  0  0
  1 22  1  0  0  0  0
  2  3  2  0  0  0  0
  2 19  1  0  0  0  0
  3  4  1  0  0  0  0
  3  6  1  0  0  0  0
  4  5  1  0  0  0  0
  4 23  1  0  0  0  0
  4 24  1  0  0  0  0
  5 25  1  0  0  0  0
  5 26  1  0  0  0  0
  5 27  1  0  0  0  0
  6  7  1  0  0  0  0
  6  9  1  0  0  0  0
  7  8  1  0  0  0  0
  7 28  1  0  0  0  0
  7 29  1  0  0  0  0
  8 30  1  0  0  0  0
  8 31  1  0  0  0  0
  8 32  1  0  0  0  0
  9 10  2  0  0  0  0
  9 18  1  0  0  0  0
 10 11  1  0  0  0  0
 10 33  1  0  0  0  0
 11 12  1  0  0  0  0
 11 13  2  0  0  0  0
 12 34  1  0  0  0  0
 12 35  1  0  0  0  0
 12 36  1  0  0  0  0
 13 14  1  0  0  0  0
 14 15  2  0  0  0  0
 14 37  1  0  0  0  0
 15 16  1  0  0  0  0
 16 17  2  0  0  0  0
 17 18  1  0  0  0  0
 18 19  2  0  0  0  0
M  END
$$$$
