
 OpenBabel04232216503D

 59 60  0  0  0  0  0  0  0  0999 V2000
    0.7129    0.8660   -1.6722 C   0  0  0  0  0  0  0  0  0  0  0  0
    2.0017    0.7396   -0.8951 C   0  0  0  0  0  0  0  0  0  0  0  0
    2.9828    0.2877   -1.6065 N   0  0  0  0  0  0  0  0  0  0  0  0
    4.2931   -0.0015   -1.3482 C   0  0  0  0  0  0  0  0  0  0  0  0
    4.9248   -0.8772   -2.1878 C   0  0  0  0  0  0  0  0  0  0  0  0
    4.0222   -1.7528   -3.0615 C   0  0  0  0  0  0  0  0  0  0  0  0
    3.6100   -1.1825   -4.4124 C   0  0  0  0  0  0  0  0  0  0  0  0
    6.3966   -1.1406   -2.1908 C   0  0  0  0  0  0  0  0  0  0  0  0
    7.1778   -1.8803   -3.0344 C   0  0  0  0  0  0  0  0  0  0  0  0
    6.7571   -2.5070   -4.3487 C   0  0  0  0  0  0  0  0  0  0  0  0
    8.6398   -2.0608   -2.8052 C   0  0  0  0  0  0  0  0  0  0  0  0
    9.3910   -3.1782   -3.0324 C   0  0  0  0  0  0  0  0  0  0  0  0
   10.8551   -3.0467   -3.1721 C   0  0  0  0  0  0  0  0  0  0  0  0
   11.5257   -3.9093   -3.9654 C   0  0  0  0  0  0  0  0  0  0  0  0
   10.8299   -4.9679   -4.6868 C   0  0  0  0  0  0  0  0  0  0  0  0
    9.5644   -5.3022   -4.3676 C   0  0  0  0  0  0  0  0  0  0  0  0
    8.8847   -4.5507   -3.2993 C   0  0  0  0  0  0  0  0  0  0  0  0
    7.8816   -5.1627   -2.6159 C   0  0  0  0  0  0  0  0  0  0  0  0
    7.1707   -4.5957   -1.4818 C   0  0  0  0  0  0  0  0  0  0  0  0
    5.8360   -4.6604   -1.3714 C   0  0  0  0  0  0  0  0  0  0  0  0
    5.0550   -3.9039   -0.4076 C   0  0  0  0  0  0  0  0  0  0  0  0
    3.7116   -3.8856   -0.4609 C   0  0  0  0  0  0  0  0  0  0  0  0
    2.8553   -3.0494    0.3519 C   0  0  0  0  0  0  0  0  0  0  0  0
    1.5262   -2.9570    0.1562 C   0  0  0  0  0  0  0  0  0  0  0  0
    0.6989   -2.0817    0.9632 C   0  0  0  0  0  0  0  0  0  0  0  0
   -0.5765   -1.7528    0.7523 C   0  0  0  0  0  0  0  0  0  0  0  0
   -0.8847   -0.5292    1.5245 C   0  0  0  0  0  0  0  0  0  0  0  0
   -0.7897    0.5862    0.8815 N   0  0  0  0  0  0  0  0  0  0  0  0
    0.0230    1.4942    1.5554 N   0  0  0  0  0  0  0  0  0  0  0  0
    0.8890    1.9292    0.7486 N   0  0  0  0  0  0  0  0  0  0  0  0
    1.9638    1.0308    0.4375 O   0  0  0  0  0  0  0  0  0  0  0  0
    0.8555    0.4418   -2.6779 H   0  0  0  0  0  0  0  0  0  0  0  0
    0.4178    1.9125   -1.7767 H   0  0  0  0  0  0  0  0  0  0  0  0
   -0.0769    0.2651   -1.2363 H   0  0  0  0  0  0  0  0  0  0  0  0
    4.8263    0.5852   -0.6039 H   0  0  0  0  0  0  0  0  0  0  0  0
    3.0926   -1.9832   -2.5230 H   0  0  0  0  0  0  0  0  0  0  0  0
    4.4708   -2.7419   -3.1909 H   0  0  0  0  0  0  0  0  0  0  0  0
    2.7634   -0.4969   -4.3151 H   0  0  0  0  0  0  0  0  0  0  0  0
    3.2898   -2.0062   -5.0618 H   0  0  0  0  0  0  0  0  0  0  0  0
    4.4158   -0.6411   -4.9147 H   0  0  0  0  0  0  0  0  0  0  0  0
    6.9038   -0.6753   -1.3429 H   0  0  0  0  0  0  0  0  0  0  0  0
    5.8903   -2.0422   -4.7967 H   0  0  0  0  0  0  0  0  0  0  0  0
    6.5317   -3.5708   -4.2478 H   0  0  0  0  0  0  0  0  0  0  0  0
    7.5402   -2.3929   -5.1084 H   0  0  0  0  0  0  0  0  0  0  0  0
    9.1542   -1.1300   -2.5827 H   0  0  0  0  0  0  0  0  0  0  0  0
   11.3814   -2.2533   -2.6539 H   0  0  0  0  0  0  0  0  0  0  0  0
   12.6006   -3.8370   -4.1034 H   0  0  0  0  0  0  0  0  0  0  0  0
   11.3621   -5.4882   -5.4775 H   0  0  0  0  0  0  0  0  0  0  0  0
    9.0457   -6.0970   -4.8939 H   0  0  0  0  0  0  0  0  0  0  0  0
    7.5568   -6.1574   -2.9157 H   0  0  0  0  0  0  0  0  0  0  0  0
    7.7579   -3.9947   -0.7892 H   0  0  0  0  0  0  0  0  0  0  0  0
    5.2729   -5.2007   -2.1319 H   0  0  0  0  0  0  0  0  0  0  0  0
    5.5962   -3.2632    0.2858 H   0  0  0  0  0  0  0  0  0  0  0  0
    3.2054   -4.4896   -1.2091 H   0  0  0  0  0  0  0  0  0  0  0  0
    3.3413   -2.4457    1.1187 H   0  0  0  0  0  0  0  0  0  0  0  0
    1.0449   -3.4941   -0.6567 H   0  0  0  0  0  0  0  0  0  0  0  0
    1.2480   -1.5809    1.7655 H   0  0  0  0  0  0  0  0  0  0  0  0
   -1.1850   -2.0589   -0.0980 H   0  0  0  0  0  0  0  0  0  0  0  0
   -0.7415   -0.6084    2.6190 H   0  0  0  0  0  0  0  0  0  0  0  0
  1  2  1  0  0  0  0
  1 32  1  0  0  0  0
  1 33  1  0  0  0  0
  1 34  1  0  0  0  0
  2  3  2  3  0  0  0
  2 31  1  0  0  0  0
  3  4  1  0  0  0  0
  4  5  2  3  0  0  0
  4 35  1  0  0  0  0
  5  6  1  0  0  0  0
  5  8  1  0  0  0  0
  6  7  1  0  0  0  0
  6 36  1  0  0  0  0
  6 37  1  0  0  0  0
  7 38  1  0  0  0  0
  7 39  1  0  0  0  0
  7 40  1  0  0  0  0
  8  9  2  3  0  0  0
  8 41  1  0  0  0  0
  9 10  1  0  0  0  0
  9 11  1  0  0  0  0
 10 42  1  0  0  0  0
 10 43  1  0  0  0  0
 10 44  1  0  0  0  0
 11 12  2  3  0  0  0
 11 45  1  0  0  0  0
 12 13  1  0  0  0  0
 12 17  1  0  0  0  0
 13 14  2  0  0  0  0
 13 46  1  0  0  0  0
 14 15  1  0  0  0  0
 14 47  1  0  0  0  0
 15 16  2  0  0  0  0
 15 48  1  0  0  0  0
 16 17  1  0  0  0  0
 16 49  1  0  0  0  0
 17 18  2  3  0  0  0
 18 19  1  0  0  0  0
 18 50  1  0  0  0  0
 19 20  2  3  0  0  0
 19 51  1  0  0  0  0
 20 21  1  0  0  0  0
 20 52  1  0  0  0  0
 21 22  2  3  0  0  0
 21 53  1  0  0  0  0
 22 23  1  0  0  0  0
 22 54  1  0  0  0  0
 23 24  2  3  0  0  0
 23 55  1  0  0  0  0
 24 25  1  0  0  0  0
 24 56  1  0  0  0  0
 25 26  2  3  0  0  0
 25 57  1  0  0  0  0
 26 27  1  0  0  0  0
 26 58  1  0  0  0  0
 27 28  2  3  0  0  0
 27 59  1  0  0  0  0
 28 29  1  0  0  0  0
 29 30  2  3  0  0  0
 30 31  1  0  0  0  0
M  END
$$$$
