
 OpenBabel04232216553D

 36 35  0  0  0  0  0  0  0  0999 V2000
    1.0749    0.0405    0.0889 C   0  0  0  0  0  0  0  0  0  0  0  0
    2.5970    0.0113    0.0755 C   0  0  0  0  0  0  0  0  0  0  0  0
    3.1027   -1.2290   -0.6579 C   0  0  0  0  0  0  0  0  0  0  0  0
    4.5650   -1.2657   -0.6792 N   0  0  0  0  0  0  0  0  0  0  0  0
    5.0121   -2.4477   -1.3796 C   0  0  0  0  0  0  0  0  0  0  0  0
    6.4559   -2.4165   -1.3627 N   0  0  0  0  0  0  0  0  0  0  0  0
    6.9831   -3.5887   -2.0598 C   0  0  0  0  0  0  0  0  0  0  0  0
    8.5106   -3.5841   -2.0583 C   0  0  0  0  0  0  0  0  0  0  0  0
    9.0460   -4.8165   -2.7917 C   0  0  0  0  0  0  0  0  0  0  0  0
   10.5727   -4.8379   -2.8058 C   0  0  0  0  0  0  0  0  0  0  0  0
   11.1029   -6.0693   -3.5388 C   0  0  0  0  0  0  0  0  0  0  0  0
   12.6224   -6.0895   -3.5518 C   0  0  0  0  0  0  0  0  0  0  0  0
    0.7140    0.9294    0.6144 H   0  0  0  0  0  0  0  0  0  0  0  0
    0.6716   -0.8426    0.5954 H   0  0  0  0  0  0  0  0  0  0  0  0
    0.6751    0.0611   -0.9304 H   0  0  0  0  0  0  0  0  0  0  0  0
    2.9663    0.0197    1.1077 H   0  0  0  0  0  0  0  0  0  0  0  0
    2.9703    0.9189   -0.4136 H   0  0  0  0  0  0  0  0  0  0  0  0
    2.7180   -1.2174   -1.6849 H   0  0  0  0  0  0  0  0  0  0  0  0
    2.7114   -2.1260   -0.1622 H   0  0  0  0  0  0  0  0  0  0  0  0
    4.9297   -1.2736    0.2667 H   0  0  0  0  0  0  0  0  0  0  0  0
    4.6485   -2.4321   -2.4133 H   0  0  0  0  0  0  0  0  0  0  0  0
    4.6398   -3.3530   -0.8853 H   0  0  0  0  0  0  0  0  0  0  0  0
    6.7843   -2.4028   -0.4023 H   0  0  0  0  0  0  0  0  0  0  0  0
    6.6277   -3.5930   -3.0977 H   0  0  0  0  0  0  0  0  0  0  0  0
    6.6248   -4.5067   -1.5776 H   0  0  0  0  0  0  0  0  0  0  0  0
    8.8854   -3.5776   -1.0273 H   0  0  0  0  0  0  0  0  0  0  0  0
    8.8824   -2.6744   -2.5463 H   0  0  0  0  0  0  0  0  0  0  0  0
    8.6688   -4.8237   -3.8218 H   0  0  0  0  0  0  0  0  0  0  0  0
    8.6701   -5.7251   -2.3052 H   0  0  0  0  0  0  0  0  0  0  0  0
   10.9492   -4.8326   -1.7757 H   0  0  0  0  0  0  0  0  0  0  0  0
   10.9480   -3.9298   -3.2929 H   0  0  0  0  0  0  0  0  0  0  0  0
   10.7329   -6.0783   -4.5707 H   0  0  0  0  0  0  0  0  0  0  0  0
   10.7340   -6.9806   -3.0538 H   0  0  0  0  0  0  0  0  0  0  0  0
   13.0207   -5.2046   -4.0581 H   0  0  0  0  0  0  0  0  0  0  0  0
   12.9863   -6.9766   -4.0792 H   0  0  0  0  0  0  0  0  0  0  0  0
   13.0216   -6.1113   -2.5326 H   0  0  0  0  0  0  0  0  0  0  0  0
  1  2  1  0  0  0  0
  1 13  1  0  0  0  0
  1 14  1  0  0  0  0
  1 15  1  0  0  0  0
  2  3  1  0  0  0  0
  2 16  1  0  0  0  0
  2 17  1  0  0  0  0
  3  4  1  0  0  0  0
  3 18  1  0  0  0  0
  3 19  1  0  0  0  0
  4  5  1  0  0  0  0
  4 20  1  0  0  0  0
  5  6  1  0  0  0  0
  5 21  1  0  0  0  0
  5 22  1  0  0  0  0
  6  7  1  0  0  0  0
  6 23  1  0  0  0  0
  7  8  1  0  0  0  0
  7 24  1  0  0  0  0
  7 25  1  0  0  0  0
  8  9  1  0  0  0  0
  8 26  1  0  0  0  0
  8 27  1  0  0  0  0
  9 10  1  0  0  0  0
  9 28  1  0  0  0  0
  9 29  1  0  0  0  0
 10 11  1  0  0  0  0
 10 30  1  0  0  0  0
 10 31  1  0  0  0  0
 11 12  1  0  0  0  0
 11 32  1  0  0  0  0
 11 33  1  0  0  0  0
 12 34  1  0  0  0  0
 12 35  1  0  0  0  0
 12 36  1  0  0  0  0
M  END
$$$$
