
 OpenBabel04232217023D

120119  0  0  0  0  0  0  0  0999 V2000
   31.4008    0.0116  -31.5365 O   0  0  0  0  0  0  0  0  0  0  0  0
   31.1111   -0.4514  -30.1778 O   0  0  0  0  0  0  0  0  0  0  0  0
   31.8025    0.4445  -29.3053 C   0  0  0  0  0  0  0  0  0  0  0  0
   31.3961    0.1974  -27.8376 C   0  0  0  0  0  0  0  0  0  0  0  0
   31.8191   -1.1807  -27.3040 C   0  0  0  0  0  0  0  0  0  0  0  0
   31.5769   -1.3311  -25.8503 N   0  0  0  0  0  0  0  0  0  0  0  0
   31.9718   -2.6386  -25.4629 N   0  0  0  0  0  0  0  0  0  0  0  0
   31.5890   -2.8303  -24.1141 N   0  0  0  0  0  0  0  0  0  0  0  0
   31.9344   -4.1378  -23.6635 N   0  0  0  0  0  0  0  0  0  0  0  0
   31.5280   -4.3210  -22.3140 N   0  0  0  0  0  0  0  0  0  0  0  0
   31.9157   -5.8328  -21.7583 S   0  0  0  0  0  0  0  0  0  0  0  0
   33.5565   -5.9790  -21.7331 N   0  0  0  0  0  0  0  0  0  0  0  0
   34.2953   -4.7918  -20.8491 S   0  0  0  0  0  0  0  0  0  0  0  0
   35.8845   -5.2044  -20.7594 N   0  0  0  0  0  0  0  0  0  0  0  0
   36.6176   -5.2667  -22.2271 S   0  0  0  0  0  0  0  0  0  0  0  0
   38.2149   -5.2809  -21.8807 N   0  0  0  0  0  0  0  0  0  0  0  0
   38.7856   -6.7265  -21.3905 S   0  0  0  0  0  0  0  0  0  0  0  0
   40.1609   -6.9381  -22.2670 N   0  0  0  0  0  0  0  0  0  0  0  0
   41.0292   -8.2053  -21.6693 S   0  0  0  0  0  0  0  0  0  0  0  0
   40.4249   -9.5393  -22.4500 N   0  0  0  0  0  0  0  0  0  0  0  0
   40.7691   -9.5475  -24.0694 S   0  0  0  0  0  0  0  0  0  0  0  0
   42.4179   -9.5783  -24.1680 N   0  0  0  0  0  0  0  0  0  0  0  0
   42.9520   -9.4419  -25.7262 S   0  0  0  0  0  0  0  0  0  0  0  0
   42.6631   -7.8878  -26.2168 N   0  0  0  0  0  0  0  0  0  0  0  0
   43.7065   -6.7971  -25.5439 S   0  0  0  0  0  0  0  0  0  0  0  0
   42.9781   -6.4224  -24.1227 N   0  0  0  0  0  0  0  0  0  0  0  0
   43.5612   -5.0853  -23.3682 S   0  0  0  0  0  0  0  0  0  0  0  0
   42.8467   -3.7817  -24.1115 N   0  0  0  0  0  0  0  0  0  0  0  0
   41.2330   -3.6668  -23.8055 S   0  0  0  0  0  0  0  0  0  0  0  0
   40.5660   -4.7381  -24.8764 N   0  0  0  0  0  0  0  0  0  0  0  0
   38.9480   -4.5196  -25.0778 S   0  0  0  0  0  0  0  0  0  0  0  0
   38.7200   -3.0008  -25.6701 N   0  0  0  0  0  0  0  0  0  0  0  0
   39.0471   -2.9454  -27.2848 S   0  0  0  0  0  0  0  0  0  0  0  0
   38.3279   -1.5890  -27.8890 N   0  0  0  0  0  0  0  0  0  0  0  0
   38.8841   -0.1841  -27.2478 S   0  0  0  0  0  0  0  0  0  0  0  0
   40.5392   -0.1811  -27.2561 N   0  0  0  0  0  0  0  0  0  0  0  0
   41.2018    0.0228  -28.7657 S   0  0  0  0  0  0  0  0  0  0  0  0
   40.5921    1.4260  -29.4095 N   0  0  0  0  0  0  0  0  0  0  0  0
   41.2699    2.7828  -28.7386 S   0  0  0  0  0  0  0  0  0  0  0  0
   40.5478    2.9642  -27.2614 N   0  0  0  0  0  0  0  0  0  0  0  0
   40.8519    4.4527  -26.6088 S   0  0  0  0  0  0  0  0  0  0  0  0
   40.3133    4.3416  -25.0447 N   0  0  0  0  0  0  0  0  0  0  0  0
   38.6774    4.5598  -24.9400 S   0  0  0  0  0  0  0  0  0  0  0  0
   37.9958    3.1052  -25.3600 N   0  0  0  0  0  0  0  0  0  0  0  0
   38.4975    1.8454  -24.4068 S   0  0  0  0  0  0  0  0  0  0  0  0
   38.0115    2.2775  -22.9035 N   0  0  0  0  0  0  0  0  0  0  0  0
   36.4765    1.7288  -22.6335 S   0  0  0  0  0  0  0  0  0  0  0  0
   36.1307    2.2443  -21.1082 N   0  0  0  0  0  0  0  0  0  0  0  0
   36.4810    1.1056  -19.9516 S   0  0  0  0  0  0  0  0  0  0  0  0
   38.0979    0.7306  -20.0600 N   0  0  0  0  0  0  0  0  0  0  0  0
   39.1118    1.8874  -19.4180 S   0  0  0  0  0  0  0  0  0  0  0  0
   38.7506    2.2103  -17.8382 N   0  0  0  0  0  0  0  0  0  0  0  0
   39.1541    1.0239  -16.7591 S   0  0  0  0  0  0  0  0  0  0  0  0
   40.8027    0.8458  -16.6349 N   0  0  0  0  0  0  0  0  0  0  0  0
   41.6175    2.1867  -16.1082 S   0  0  0  0  0  0  0  0  0  0  0  0
   41.2667    2.5041  -14.5477 N   0  0  0  0  0  0  0  0  0  0  0  0
   41.9986    1.6076  -13.3964 S   0  0  0  0  0  0  0  0  0  0  0  0
   41.3602    2.1894  -11.9782 N   0  0  0  0  0  0  0  0  0  0  0  0
   42.2198    3.4571  -11.3337 S   0  0  0  0  0  0  0  0  0  0  0  0
   41.9829    4.8364  -12.2137 N   0  0  0  0  0  0  0  0  0  0  0  0
   40.3986    5.2501  -12.4239 S   0  0  0  0  0  0  0  0  0  0  0  0
   40.3813    6.5795  -13.4067 N   0  0  0  0  0  0  0  0  0  0  0  0
   41.0104    6.2655  -14.9067 S   0  0  0  0  0  0  0  0  0  0  0  0
   40.7851    8.1332  -15.7265 S   0  0  0  0  0  0  0  0  0  0  0  0
   42.1191    9.3194  -14.7060 S   0  0  0  0  0  0  0  0  0  0  0  0
   43.9441    9.1017  -15.6263 S   0  0  0  0  0  0  0  0  0  0  0  0
   45.1105   10.6121  -14.8486 S   0  0  0  0  0  0  0  0  0  0  0  0
   46.9778    9.8201  -14.4558 S   0  0  0  0  0  0  0  0  0  0  0  0
   48.1631   11.4626  -14.0278 S   0  0  0  0  0  0  0  0  0  0  0  0
   50.1355   10.8720  -14.1900 S   0  0  0  0  0  0  0  0  0  0  0  0
   51.2538   12.3604  -13.2779 S   0  0  0  0  0  0  0  0  0  0  0  0
   53.2381   11.8180  -13.4982 S   0  0  0  0  0  0  0  0  0  0  0  0
   54.3677   13.3277  -12.6440 S   0  0  0  0  0  0  0  0  0  0  0  0
   56.3472   12.7698  -12.8814 S   0  0  0  0  0  0  0  0  0  0  0  0
   57.4867   14.3303  -12.1509 S   0  0  0  0  0  0  0  0  0  0  0  0
   59.4182   13.6153  -11.9625 S   0  0  0  0  0  0  0  0  0  0  0  0
   60.5713   15.2634  -11.5024 S   0  0  0  0  0  0  0  0  0  0  0  0
   62.5323   14.7255  -11.8327 S   0  0  0  0  0  0  0  0  0  0  0  0
   63.6426   15.9458  -10.6012 S   0  0  0  0  0  0  0  0  0  0  0  0
   65.6113   15.4970  -10.9836 S   0  0  0  0  0  0  0  0  0  0  0  0
   66.0765   13.9890   -9.6720 S   0  0  0  0  0  0  0  0  0  0  0  0
   31.1941   -0.8314  -31.9811 H   0  0  0  0  0  0  0  0  0  0  0  0
   31.5488    1.4748  -29.5745 H   0  0  0  0  0  0  0  0  0  0  0  0
   32.8855    0.3072  -29.4252 H   0  0  0  0  0  0  0  0  0  0  0  0
   30.3064    0.2901  -27.7477 H   0  0  0  0  0  0  0  0  0  0  0  0
   31.8499    0.9797  -27.2153 H   0  0  0  0  0  0  0  0  0  0  0  0
   32.8989   -1.2952  -27.4820 H   0  0  0  0  0  0  0  0  0  0  0  0
   31.3051   -1.9671  -27.8694 H   0  0  0  0  0  0  0  0  0  0  0  0
   30.5726   -1.2604  -25.6272 H   0  0  0  0  0  0  0  0  0  0  0  0
   32.9872   -2.7482  -25.5424 H   0  0  0  0  0  0  0  0  0  0  0  0
   30.5909   -2.6364  -24.0320 H   0  0  0  0  0  0  0  0  0  0  0  0
   32.9501   -4.2421  -23.6952 H   0  0  0  0  0  0  0  0  0  0  0  0
   30.5211   -4.1818  -22.2117 H   0  0  0  0  0  0  0  0  0  0  0  0
   33.9593   -6.0142  -22.6712 H   0  0  0  0  0  0  0  0  0  0  0  0
   35.9955   -6.0859  -20.2604 H   0  0  0  0  0  0  0  0  0  0  0  0
   38.4845   -4.5052  -21.2781 H   0  0  0  0  0  0  0  0  0  0  0  0
   40.7288   -6.0945  -22.3663 H   0  0  0  0  0  0  0  0  0  0  0  0
   39.4123   -9.5405  -22.3185 H   0  0  0  0  0  0  0  0  0  0  0  0
   42.7544  -10.4453  -23.7469 H   0  0  0  0  0  0  0  0  0  0  0  0
   41.6952   -7.6206  -26.0352 H   0  0  0  0  0  0  0  0  0  0  0  0
   42.9089   -7.2454  -23.5107 H   0  0  0  0  0  0  0  0  0  0  0  0
   43.0041   -3.8703  -25.1147 H   0  0  0  0  0  0  0  0  0  0  0  0
   40.7699   -5.6855  -24.5423 H   0  0  0  0  0  0  0  0  0  0  0  0
   39.2018   -2.2871  -25.1126 H   0  0  0  0  0  0  0  0  0  0  0  0
   37.3162   -1.6584  -27.7796 H   0  0  0  0  0  0  0  0  0  0  0  0
   40.9196   -1.0135  -26.7971 H   0  0  0  0  0  0  0  0  0  0  0  0
   39.5795    1.4363  -29.2766 H   0  0  0  0  0  0  0  0  0  0  0  0
   40.8627    2.2342  -26.6164 H   0  0  0  0  0  0  0  0  0  0  0  0
   40.7770    5.0292  -24.4502 H   0  0  0  0  0  0  0  0  0  0  0  0
   38.2393    2.9188  -26.3297 H   0  0  0  0  0  0  0  0  0  0  0  0
   38.0390    3.3010  -22.9005 H   0  0  0  0  0  0  0  0  0  0  0  0
   35.1380    2.4948  -21.0694 H   0  0  0  0  0  0  0  0  0  0  0  0
   38.3162    0.6361  -21.0600 H   0  0  0  0  0  0  0  0  0  0  0  0
   37.7849    2.5321  -17.7295 H   0  0  0  0  0  0  0  0  0  0  0  0
   41.2090    0.5173  -17.5129 H   0  0  0  0  0  0  0  0  0  0  0  0
   40.3454    2.8588  -14.2983 H   0  0  0  0  0  0  0  0  0  0  0  0
   41.3283    1.4475  -11.2723 H   0  0  0  0  0  0  0  0  0  0  0  0
   42.4835    4.7996  -13.0993 H   0  0  0  0  0  0  0  0  0  0  0  0
   40.8371    7.3829  -12.9647 H   0  0  0  0  0  0  0  0  0  0  0  0
   67.3454   13.7515  -10.0384 H   0  0  0  0  0  0  0  0  0  0  0  0
  1  2  1  0  0  0  0
  1 82  1  0  0  0  0
  2  3  1  0  0  0  0
  3  4  1  0  0  0  0
  3 83  1  0  0  0  0
  3 84  1  0  0  0  0
  4  5  1  0  0  0  0
  4 85  1  0  0  0  0
  4 86  1  0  0  0  0
  5  6  1  0  0  0  0
  5 87  1  0  0  0  0
  5 88  1  0  0  0  0
  6  7  1  0  0  0  0
  6 89  1  0  0  0  0
  7  8  1  0  0  0  0
  7 90  1  0  0  0  0
  8  9  1  0  0  0  0
  8 91  1  0  0  0  0
  9 10  1  0  0  0  0
  9 92  1  0  0  0  0
 10 11  1  0  0  0  0
 10 93  1  0  0  0  0
 11 12  1  0  0  0  0
 12 13  1  0  0  0  0
 12 94  1  0  0  0  0
 13 14  1  0  0  0  0
 14 15  1  0  0  0  0
 14 95  1  0  0  0  0
 15 16  1  0  0  0  0
 16 17  1  0  0  0  0
 16 96  1  0  0  0  0
 17 18  1  0  0  0  0
 18 19  1  0  0  0  0
 18 97  1  0  0  0  0
 19 20  1  0  0  0  0
 20 21  1  0  0  0  0
 20 98  1  0  0  0  0
 21 22  1  0  0  0  0
 22 23  1  0  0  0  0
 22 99  1  0  0  0  0
 23 24  1  0  0  0  0
 24 25  1  0  0  0  0
 24100  1  0  0  0  0
 25 26  1  0  0  0  0
 26 27  1  0  0  0  0
 26101  1  0  0  0  0
 27 28  1  0  0  0  0
 28 29  1  0  0  0  0
 28102  1  0  0  0  0
 29 30  1  0  0  0  0
 30 31  1  0  0  0  0
 30103  1  0  0  0  0
 31 32  1  0  0  0  0
 32 33  1  0  0  0  0
 32104  1  0  0  0  0
 33 34  1  0  0  0  0
 34 35  1  0  0  0  0
 34105  1  0  0  0  0
 35 36  1  0  0  0  0
 36 37  1  0  0  0  0
 36106  1  0  0  0  0
 37 38  1  0  0  0  0
 38 39  1  0  0  0  0
 38107  1  0  0  0  0
 39 40  1  0  0  0  0
 40 41  1  0  0  0  0
 40108  1  0  0  0  0
 41 42  1  0  0  0  0
 42 43  1  0  0  0  0
 42109  1  0  0  0  0
 43 44  1  0  0  0  0
 44 45  1  0  0  0  0
 44110  1  0  0  0  0
 45 46  1  0  0  0  0
 46 47  1  0  0  0  0
 46111  1  0  0  0  0
 47 48  1  0  0  0  0
 48 49  1  0  0  0  0
 48112  1  0  0  0  0
 49 50  1  0  0  0  0
 50 51  1  0  0  0  0
 50113  1  0  0  0  0
 51 52  1  0  0  0  0
 52 53  1  0  0  0  0
 52114  1  0  0  0  0
 53 54  1  0  0  0  0
 54 55  1  0  0  0  0
 54115  1  0  0  0  0
 55 56  1  0  0  0  0
 56 57  1  0  0  0  0
 56116  1  0  0  0  0
 57 58  1  0  0  0  0
 58 59  1  0  0  0  0
 58117  1  0  0  0  0
 59 60  1  0  0  0  0
 60 61  1  0  0  0  0
 60118  1  0  0  0  0
 61 62  1  0  0  0  0
 62 63  1  0  0  0  0
 62119  1  0  0  0  0
 63 64  1  0  0  0  0
 64 65  1  0  0  0  0
 65 66  1  0  0  0  0
 66 67  1  0  0  0  0
 67 68  1  0  0  0  0
 68 69  1  0  0  0  0
 69 70  1  0  0  0  0
 70 71  1  0  0  0  0
 71 72  1  0  0  0  0
 72 73  1  0  0  0  0
 73 74  1  0  0  0  0
 74 75  1  0  0  0  0
 75 76  1  0  0  0  0
 76 77  1  0  0  0  0
 77 78  1  0  0  0  0
 78 79  1  0  0  0  0
 79 80  1  0  0  0  0
 80 81  1  0  0  0  0
 81120  1  0  0  0  0
M  END
$$$$
