
 OpenBabel04232216503D

 45 45  0  0  0  0  0  0  0  0999 V2000
    5.6822   -1.3096    3.3601 C   0  0  0  0  0  0  0  0  0  0  0  0
    7.0314   -1.5973    2.6175 C   0  0  0  0  0  0  0  0  0  0  0  0
    7.1071   -1.4470    1.3225 N   0  0  0  0  0  0  0  0  0  0  0  0
    5.9314   -1.3563    0.5815 C   0  0  0  0  0  0  0  0  0  0  0  0
    5.4654   -2.5086    0.0377 C   0  0  0  0  0  0  0  0  0  0  0  0
    4.5293   -3.2767    0.8338 C   0  0  0  0  0  0  0  0  0  0  0  0
    3.6365   -4.1859    0.4073 C   0  0  0  0  0  0  0  0  0  0  0  0
    6.6066   -3.3400   -0.5585 C   0  0  0  0  0  0  0  0  0  0  0  0
    7.0867   -4.4087    0.4196 C   0  0  0  0  0  0  0  0  0  0  0  0
    8.5666   -4.6506    0.2809 C   0  0  0  0  0  0  0  0  0  0  0  0
    8.9530   -5.7808    1.2068 C   0  0  0  0  0  0  0  0  0  0  0  0
    8.2336   -6.2731    2.0430 O   0  0  0  0  0  0  0  0  0  0  0  0
   10.2838   -6.0898    1.0332 N   0  0  0  0  0  0  0  0  0  0  0  0
   11.0014   -6.6045    2.1543 C   0  0  0  0  0  0  0  0  0  0  0  0
   11.8763   -5.4799    2.7387 C   0  0  0  0  0  0  0  0  0  0  0  0
   11.3891   -4.9168    4.0948 C   0  0  0  0  0  0  0  0  0  0  0  0
   10.4963   -3.5980    4.2523 C   0  0  0  0  0  0  0  0  0  0  0  0
    9.1789   -3.3573    3.3987 C   0  0  0  0  0  0  0  0  0  0  0  0
    8.4242   -1.9207    3.3763 C   0  0  0  0  0  0  0  0  0  0  0  0
    5.3103   -2.1635    3.9233 H   0  0  0  0  0  0  0  0  0  0  0  0
    4.8708   -1.0357    2.6661 H   0  0  0  0  0  0  0  0  0  0  0  0
    5.7628   -0.4249    3.9999 H   0  0  0  0  0  0  0  0  0  0  0  0
    6.0128   -0.5332   -0.1388 H   0  0  0  0  0  0  0  0  0  0  0  0
    4.6522   -3.2370    1.9219 H   0  0  0  0  0  0  0  0  0  0  0  0
    3.4652   -4.3658   -0.6388 H   0  0  0  0  0  0  0  0  0  0  0  0
    3.0762   -4.7789    1.1234 H   0  0  0  0  0  0  0  0  0  0  0  0
    7.4535   -2.6710   -0.7963 H   0  0  0  0  0  0  0  0  0  0  0  0
    6.3364   -3.7765   -1.5240 H   0  0  0  0  0  0  0  0  0  0  0  0
    6.5323   -5.3329    0.2494 H   0  0  0  0  0  0  0  0  0  0  0  0
    6.8971   -4.1338    1.4686 H   0  0  0  0  0  0  0  0  0  0  0  0
    9.1130   -3.7419    0.5642 H   0  0  0  0  0  0  0  0  0  0  0  0
    8.8548   -4.8738   -0.7466 H   0  0  0  0  0  0  0  0  0  0  0  0
   10.8132   -5.6262    0.3010 H   0  0  0  0  0  0  0  0  0  0  0  0
   11.6529   -7.4126    1.7440 H   0  0  0  0  0  0  0  0  0  0  0  0
   10.3696   -7.0621    2.9045 H   0  0  0  0  0  0  0  0  0  0  0  0
   12.0481   -4.6706    2.0184 H   0  0  0  0  0  0  0  0  0  0  0  0
   12.8712   -5.9354    2.9052 H   0  0  0  0  0  0  0  0  0  0  0  0
   10.9553   -5.7378    4.6807 H   0  0  0  0  0  0  0  0  0  0  0  0
   12.3284   -4.6852    4.6286 H   0  0  0  0  0  0  0  0  0  0  0  0
   10.2303   -3.5723    5.3191 H   0  0  0  0  0  0  0  0  0  0  0  0
   11.1774   -2.7533    4.0931 H   0  0  0  0  0  0  0  0  0  0  0  0
    8.4698   -4.1626    3.6051 H   0  0  0  0  0  0  0  0  0  0  0  0
    9.5674   -3.4744    2.3951 H   0  0  0  0  0  0  0  0  0  0  0  0
    9.1109   -1.3247    2.7557 H   0  0  0  0  0  0  0  0  0  0  0  0
    8.4129   -1.4393    4.3554 H   0  0  0  0  0  0  0  0  0  0  0  0
  1  2  1  0  0  0  0
  1 20  1  0  0  0  0
  1 21  1  0  0  0  0
  1 22  1  0  0  0  0
  2  3  2  3  0  0  0
  2 19  1  0  0  0  0
  3  4  1  0  0  0  0
  4  5  2  3  0  0  0
  4 23  1  0  0  0  0
  5  6  1  0  0  0  0
  5  8  1  0  0  0  0
  6  7  2  0  0  0  0
  6 24  1  0  0  0  0
  7 25  1  0  0  0  0
  7 26  1  0  0  0  0
  8  9  1  0  0  0  0
  8 27  1  0  0  0  0
  8 28  1  0  0  0  0
  9 10  1  0  0  0  0
  9 29  1  0  0  0  0
  9 30  1  0  0  0  0
 10 11  1  0  0  0  0
 10 31  1  0  0  0  0
 10 32  1  0  0  0  0
 11 12  2  0  0  0  0
 11 13  1  0  0  0  0
 13 14  1  0  0  0  0
 13 33  1  0  0  0  0
 14 15  1  0  0  0  0
 14 34  1  0  0  0  0
 14 35  1  0  0  0  0
 15 16  1  0  0  0  0
 15 36  1  0  0  0  0
 15 37  1  0  0  0  0
 16 17  1  0  0  0  0
 16 38  1  0  0  0  0
 16 39  1  0  0  0  0
 17 18  1  0  0  0  0
 17 40  1  0  0  0  0
 17 41  1  0  0  0  0
 18 19  1  0  0  0  0
 18 42  1  0  0  0  0
 18 43  1  0  0  0  0
 19 44  1  0  0  0  0
 19 45  1  0  0  0  0
M  END
$$$$
