
 OpenBabel04232217013D

166166  0  0  1  0  0  0  0  0999 V2000
    2.9983    3.0565    1.3621 O   0  0  0  0  0  0  0  0  0  0  0  0
    2.3728    2.1552    0.5263 N   0  0  0  0  0  0  0  0  0  0  0  0
    1.0712    1.7536    0.6499 C   0  0  0  0  0  0  0  0  0  0  0  0
    0.9071    0.4974    0.2244 C   0  0  0  0  0  0  0  0  0  0  0  0
    2.2550   -0.1046   -0.0901 C   0  0  0  0  0  0  0  0  0  0  0  0
    3.2073    1.1261   -0.0910 C   0  0  3  0  0  0  0  0  0  0  0  0
    3.5090    1.5807   -1.5254 C   0  0  0  0  0  0  0  0  0  0  0  0
    4.4396    2.7880   -1.5476 C   0  0  0  0  0  0  0  0  0  0  0  0
    4.7014    3.2335   -2.9763 C   0  0  0  0  0  0  0  0  0  0  0  0
    5.6286    4.4370   -2.9790 C   0  0  0  0  0  0  0  0  0  0  0  0
    5.8976    4.8825   -4.4042 C   0  0  0  0  0  0  0  0  0  0  0  0
    6.8269    6.0823   -4.4065 C   0  0  0  0  0  0  0  0  0  0  0  0
    7.0917    6.5248   -5.8334 C   0  0  0  0  0  0  0  0  0  0  0  0
    8.0202    7.7243   -5.8387 C   0  0  0  0  0  0  0  0  0  0  0  0
    8.2836    8.1654   -7.2660 C   0  0  0  0  0  0  0  0  0  0  0  0
    9.2120    9.3648   -7.2712 C   0  0  0  0  0  0  0  0  0  0  0  0
    9.4752    9.8059   -8.6983 C   0  0  0  0  0  0  0  0  0  0  0  0
   10.4036   11.0053   -8.7033 C   0  0  0  0  0  0  0  0  0  0  0  0
   10.6653   11.4475  -10.1303 C   0  0  0  0  0  0  0  0  0  0  0  0
   11.5936   12.6469  -10.1353 C   0  0  0  0  0  0  0  0  0  0  0  0
   11.8552   13.0891  -11.5623 C   0  0  0  0  0  0  0  0  0  0  0  0
   12.7835   14.2884  -11.5672 C   0  0  0  0  0  0  0  0  0  0  0  0
   13.0452   14.7306  -12.9942 C   0  0  0  0  0  0  0  0  0  0  0  0
   13.9735   15.9300  -12.9992 C   0  0  0  0  0  0  0  0  0  0  0  0
   14.2352   16.3722  -14.4261 C   0  0  0  0  0  0  0  0  0  0  0  0
   15.1635   17.5715  -14.4311 C   0  0  0  0  0  0  0  0  0  0  0  0
   15.4251   18.0138  -15.8581 C   0  0  0  0  0  0  0  0  0  0  0  0
   16.3534   19.2132  -15.8630 C   0  0  0  0  0  0  0  0  0  0  0  0
   16.6137   19.6567  -17.2899 C   0  0  0  0  0  0  0  0  0  0  0  0
   17.5420   20.8562  -17.2950 C   0  0  0  0  0  0  0  0  0  0  0  0
   17.8038   21.2986  -18.7220 C   0  0  0  0  0  0  0  0  0  0  0  0
   18.7323   22.4981  -18.7275 C   0  0  0  0  0  0  0  0  0  0  0  0
   18.9952   22.9388  -20.1550 C   0  0  0  0  0  0  0  0  0  0  0  0
   19.9235   24.1383  -20.1629 C   0  0  0  0  0  0  0  0  0  0  0  0
   20.1839   24.5788  -21.5918 C   0  0  0  0  0  0  0  0  0  0  0  0
   21.1124   25.7766  -21.5990 C   0  0  0  0  0  0  0  0  0  0  0  0
   21.3761   26.2280  -23.0230 C   0  0  0  0  0  0  0  0  0  0  0  0
   22.2896   27.4312  -23.0047 C   0  0  0  0  0  0  0  0  0  0  0  0
   22.5030   27.8507  -24.3477 O   0  0  0  0  0  0  0  0  0  0  0  0
   23.4009   28.9566  -24.3916 C   0  0  0  0  0  0  0  0  0  0  0  0
   24.6730   28.6720  -23.8293 O   0  0  0  0  0  0  0  0  0  0  0  0
   25.2810   27.5656  -24.4844 C   0  0  0  0  0  0  0  0  0  0  0  0
   26.5116   27.2332  -23.8680 O   0  0  0  0  0  0  0  0  0  0  0  0
   26.2980   26.8222  -22.5214 C   0  0  0  0  0  0  0  0  0  0  0  0
   27.5250   26.4944  -21.9175 O   0  0  0  0  0  0  0  0  0  0  0  0
   27.3177   26.1172  -20.5666 C   0  0  0  0  0  0  0  0  0  0  0  0
   28.5544   25.8016  -19.9725 O   0  0  0  0  0  0  0  0  0  0  0  0
   29.3918   26.9414  -20.0210 C   0  0  0  0  0  0  0  0  0  0  0  0
   30.6313   26.6400  -19.4253 O   0  0  0  0  0  0  0  0  0  0  0  0
   31.4526   27.7898  -19.4869 C   0  0  0  0  0  0  0  0  0  0  0  0
   32.6679   27.5111  -18.8541 O   0  0  0  0  0  0  0  0  0  0  0  0
   33.5084   28.6409  -18.9419 C   0  0  0  0  0  0  0  0  0  0  0  0
   34.7412   28.3342  -18.3584 O   0  0  0  0  0  0  0  0  0  0  0  0
   35.2851   27.2524  -19.0670 C   0  0  0  0  0  0  0  0  0  0  0  0
   36.4700   26.9621  -18.4182 O   0  0  0  0  0  0  0  0  0  0  0  0
   36.9515   25.8965  -19.1821 O   0  0  0  0  0  0  0  0  0  0  0  0
   38.1555   25.5172  -18.6284 O   0  0  0  0  0  0  0  0  0  0  0  0
   38.6348   24.4743  -19.3872 O   0  0  0  0  0  0  0  0  0  0  0  0
   39.8450   24.0932  -18.8324 O   0  0  0  0  0  0  0  0  0  0  0  0
   40.3371   23.0420  -19.5901 O   0  0  0  0  0  0  0  0  0  0  0  0
   41.5379   22.6836  -19.0170 O   0  0  0  0  0  0  0  0  0  0  0  0
   42.0345   21.6429  -19.7597 O   0  0  0  0  0  0  0  0  0  0  0  0
   43.2353   21.2926  -19.1780 O   0  0  0  0  0  0  0  0  0  0  0  0
   43.7353   20.2481  -19.9220 O   0  0  0  0  0  0  0  0  0  0  0  0
   44.9263   19.9072  -19.3377 O   0  0  0  0  0  0  0  0  0  0  0  0
   45.4204   18.8641  -20.0851 O   0  0  0  0  0  0  0  0  0  0  0  0
   46.6225   18.5229  -19.4923 O   0  0  0  0  0  0  0  0  0  0  0  0
   47.1249   17.4712  -20.2422 O   0  0  0  0  0  0  0  0  0  0  0  0
   48.3241   17.1180  -19.6649 O   0  0  0  0  0  0  0  0  0  0  0  0
   48.8271   16.0682  -20.4123 O   0  0  0  0  0  0  0  0  0  0  0  0
   50.0340   15.7118  -19.8325 O   0  0  0  0  0  0  0  0  0  0  0  0
   50.5363   14.6589  -20.5836 O   0  0  0  0  0  0  0  0  0  0  0  0
   51.7550   14.3021  -19.9928 O   0  0  0  0  0  0  0  0  0  0  0  0
   52.2876   13.2384  -20.7454 O   0  0  0  0  0  0  0  0  0  0  0  0
   53.4954   12.8893  -20.1526 O   0  0  0  0  0  0  0  0  0  0  0  0
   54.0244   11.7847  -20.8629 O   0  0  0  0  0  0  0  0  0  0  0  0
   55.2731   11.4130  -20.2928 O   0  0  0  0  0  0  0  0  0  0  0  0
   55.8302   10.3516  -21.0686 O   0  0  0  0  0  0  0  0  0  0  0  0
   56.0124   10.7914  -22.4359 O   0  0  0  0  0  0  0  0  0  0  0  0
    2.2523    3.5616    1.7275 H   0  0  0  0  0  0  0  0  0  0  0  0
    0.3274    2.4511    0.9989 H   0  0  0  0  0  0  0  0  0  0  0  0
   -0.0326   -0.0269    0.1528 H   0  0  0  0  0  0  0  0  0  0  0  0
    2.2541   -0.6495   -1.0381 H   0  0  0  0  0  0  0  0  0  0  0  0
    2.5315   -0.8013    0.7118 H   0  0  0  0  0  0  0  0  0  0  0  0
    4.1276    0.9172    0.4651 H   0  0  0  0  0  0  0  0  0  0  0  0
    2.5744    1.8437   -2.0381 H   0  0  0  0  0  0  0  0  0  0  0  0
    3.9618    0.7577   -2.0916 H   0  0  0  0  0  0  0  0  0  0  0  0
    5.3920    2.5373   -1.0611 H   0  0  0  0  0  0  0  0  0  0  0  0
    4.0040    3.6241   -0.9904 H   0  0  0  0  0  0  0  0  0  0  0  0
    3.7553    3.4894   -3.4702 H   0  0  0  0  0  0  0  0  0  0  0  0
    5.1545    2.4128   -3.5447 H   0  0  0  0  0  0  0  0  0  0  0  0
    6.5739    4.1812   -2.4846 H   0  0  0  0  0  0  0  0  0  0  0  0
    5.1783    5.2598   -2.4096 H   0  0  0  0  0  0  0  0  0  0  0  0
    4.9535    5.1409   -4.8989 H   0  0  0  0  0  0  0  0  0  0  0  0
    6.3488    4.0606   -4.9733 H   0  0  0  0  0  0  0  0  0  0  0  0
    7.7726    5.8253   -3.9134 H   0  0  0  0  0  0  0  0  0  0  0  0
    6.3775    6.9054   -3.8374 H   0  0  0  0  0  0  0  0  0  0  0  0
    6.1462    6.7821   -6.3265 H   0  0  0  0  0  0  0  0  0  0  0  0
    7.5411    5.7019   -6.4029 H   0  0  0  0  0  0  0  0  0  0  0  0
    8.9661    7.4674   -5.3462 H   0  0  0  0  0  0  0  0  0  0  0  0
    7.5710    8.5476   -5.2698 H   0  0  0  0  0  0  0  0  0  0  0  0
    7.3378    8.4224   -7.7587 H   0  0  0  0  0  0  0  0  0  0  0  0
    8.7329    7.3423   -7.8352 H   0  0  0  0  0  0  0  0  0  0  0  0
   10.1579    9.1080   -6.7786 H   0  0  0  0  0  0  0  0  0  0  0  0
    8.7627   10.1881   -6.7022 H   0  0  0  0  0  0  0  0  0  0  0  0
    8.5294   10.0629   -9.1910 H   0  0  0  0  0  0  0  0  0  0  0  0
    9.9245    8.9827   -9.2675 H   0  0  0  0  0  0  0  0  0  0  0  0
   11.3499   10.7479   -8.2119 H   0  0  0  0  0  0  0  0  0  0  0  0
    9.9549   11.8280   -8.1331 H   0  0  0  0  0  0  0  0  0  0  0  0
    9.7189   11.7049  -10.6217 H   0  0  0  0  0  0  0  0  0  0  0  0
   11.1139   10.6248  -10.7006 H   0  0  0  0  0  0  0  0  0  0  0  0
   12.5400   12.3895   -9.6439 H   0  0  0  0  0  0  0  0  0  0  0  0
   11.1449   13.4696   -9.5650 H   0  0  0  0  0  0  0  0  0  0  0  0
   10.9088   13.3465  -12.0537 H   0  0  0  0  0  0  0  0  0  0  0  0
   12.3039   12.2663  -12.1326 H   0  0  0  0  0  0  0  0  0  0  0  0
   13.7299   14.0310  -11.0758 H   0  0  0  0  0  0  0  0  0  0  0  0
   12.3349   15.1111  -10.9969 H   0  0  0  0  0  0  0  0  0  0  0  0
   12.0988   14.9880  -13.4856 H   0  0  0  0  0  0  0  0  0  0  0  0
   13.4938   13.9079  -13.5645 H   0  0  0  0  0  0  0  0  0  0  0  0
   14.9199   15.6726  -12.5078 H   0  0  0  0  0  0  0  0  0  0  0  0
   13.5248   16.7527  -12.4289 H   0  0  0  0  0  0  0  0  0  0  0  0
   13.2888   16.6296  -14.9175 H   0  0  0  0  0  0  0  0  0  0  0  0
   14.6838   15.5495  -14.9964 H   0  0  0  0  0  0  0  0  0  0  0  0
   16.1099   17.3141  -13.9397 H   0  0  0  0  0  0  0  0  0  0  0  0
   14.7148   18.3942  -13.8608 H   0  0  0  0  0  0  0  0  0  0  0  0
   14.4787   18.2711  -16.3494 H   0  0  0  0  0  0  0  0  0  0  0  0
   15.8738   17.1911  -16.4284 H   0  0  0  0  0  0  0  0  0  0  0  0
   17.3003   18.9553  -15.3728 H   0  0  0  0  0  0  0  0  0  0  0  0
   15.9054   20.0354  -15.2915 H   0  0  0  0  0  0  0  0  0  0  0  0
   15.6667   19.9145  -17.7801 H   0  0  0  0  0  0  0  0  0  0  0  0
   17.0616   18.8344  -17.8614 H   0  0  0  0  0  0  0  0  0  0  0  0
   18.4884   20.5987  -16.8036 H   0  0  0  0  0  0  0  0  0  0  0  0
   17.0933   21.6788  -16.7246 H   0  0  0  0  0  0  0  0  0  0  0  0
   16.8573   21.5558  -19.2134 H   0  0  0  0  0  0  0  0  0  0  0  0
   18.2523   20.4757  -19.2922 H   0  0  0  0  0  0  0  0  0  0  0  0
   19.6781   22.2412  -18.2349 H   0  0  0  0  0  0  0  0  0  0  0  0
   18.2830   23.3213  -18.1584 H   0  0  0  0  0  0  0  0  0  0  0  0
   18.0490   23.1953  -20.6472 H   0  0  0  0  0  0  0  0  0  0  0  0
   19.4442   22.1152  -20.7237 H   0  0  0  0  0  0  0  0  0  0  0  0
   20.8702   23.8815  -19.6715 H   0  0  0  0  0  0  0  0  0  0  0  0
   19.4755   24.9615  -19.5927 H   0  0  0  0  0  0  0  0  0  0  0  0
   19.2375   24.8378  -22.0817 H   0  0  0  0  0  0  0  0  0  0  0  0
   20.6317   23.7556  -22.1616 H   0  0  0  0  0  0  0  0  0  0  0  0
   22.0581   25.5183  -21.1055 H   0  0  0  0  0  0  0  0  0  0  0  0
   20.6650   26.5986  -21.0261 H   0  0  0  0  0  0  0  0  0  0  0  0
   20.4411   26.4852  -23.5327 H   0  0  0  0  0  0  0  0  0  0  0  0
   21.8327   25.4185  -23.6078 H   0  0  0  0  0  0  0  0  0  0  0  0
   23.2363   27.1535  -22.5250 H   0  0  0  0  0  0  0  0  0  0  0  0
   21.8402   28.2529  -22.4387 H   0  0  0  0  0  0  0  0  0  0  0  0
   22.9600   29.7930  -23.8419 H   0  0  0  0  0  0  0  0  0  0  0  0
   23.5442   29.2615  -25.4304 H   0  0  0  0  0  0  0  0  0  0  0  0
   25.4733   27.8359  -25.5242 H   0  0  0  0  0  0  0  0  0  0  0  0
   24.6370   26.6756  -24.4698 H   0  0  0  0  0  0  0  0  0  0  0  0
   25.6369   25.9476  -22.5000 H   0  0  0  0  0  0  0  0  0  0  0  0
   25.8435   27.6463  -21.9615 H   0  0  0  0  0  0  0  0  0  0  0  0
   26.6784   25.2323  -20.5220 H   0  0  0  0  0  0  0  0  0  0  0  0
   26.8408   26.9339  -20.0086 H   0  0  0  0  0  0  0  0  0  0  0  0
   28.9234   27.7687  -19.4726 H   0  0  0  0  0  0  0  0  0  0  0  0
   29.5724   27.2472  -21.0600 H   0  0  0  0  0  0  0  0  0  0  0  0
   30.9737   28.6133  -18.9394 H   0  0  0  0  0  0  0  0  0  0  0  0
   31.6262   28.0734  -20.5282 H   0  0  0  0  0  0  0  0  0  0  0  0
   33.0750   29.4687  -18.3823 H   0  0  0  0  0  0  0  0  0  0  0  0
   33.6730   28.9393  -19.9856 H   0  0  0  0  0  0  0  0  0  0  0  0
   35.4847   27.5173  -20.1138 H   0  0  0  0  0  0  0  0  0  0  0  0
   34.6507   26.3527  -19.0464 H   0  0  0  0  0  0  0  0  0  0  0  0
   56.3357    9.9428  -22.7554 H   0  0  0  0  0  0  0  0  0  0  0  0
  1  2  1  0  0  0  0
  1 80  1  0  0  0  0
  2  3  1  0  0  0  0
  2  6  1  0  0  0  0
  3  4  2  0  0  0  0
  3 81  1  0  0  0  0
  4  5  1  0  0  0  0
  4 82  1  0  0  0  0
  5  6  1  0  0  0  0
  5 83  1  0  0  0  0
  5 84  1  0  0  0  0
  6  7  1  0  0  0  0
  6 85  1  0  0  0  0
  7  8  1  0  0  0  0
  7 86  1  0  0  0  0
  7 87  1  0  0  0  0
  8  9  1  0  0  0  0
  8 88  1  0  0  0  0
  8 89  1  0  0  0  0
  9 10  1  0  0  0  0
  9 90  1  0  0  0  0
  9 91  1  0  0  0  0
 10 11  1  0  0  0  0
 10 92  1  0  0  0  0
 10 93  1  0  0  0  0
 11 12  1  0  0  0  0
 11 94  1  0  0  0  0
 11 95  1  0  0  0  0
 12 13  1  0  0  0  0
 12 96  1  0  0  0  0
 12 97  1  0  0  0  0
 13 14  1  0  0  0  0
 13 98  1  0  0  0  0
 13 99  1  0  0  0  0
 14 15  1  0  0  0  0
 14100  1  0  0  0  0
 14101  1  0  0  0  0
 15 16  1  0  0  0  0
 15102  1  0  0  0  0
 15103  1  0  0  0  0
 16 17  1  0  0  0  0
 16104  1  0  0  0  0
 16105  1  0  0  0  0
 17 18  1  0  0  0  0
 17106  1  0  0  0  0
 17107  1  0  0  0  0
 18 19  1  0  0  0  0
 18108  1  0  0  0  0
 18109  1  0  0  0  0
 19 20  1  0  0  0  0
 19110  1  0  0  0  0
 19111  1  0  0  0  0
 20 21  1  0  0  0  0
 20112  1  0  0  0  0
 20113  1  0  0  0  0
 21 22  1  0  0  0  0
 21114  1  0  0  0  0
 21115  1  0  0  0  0
 22 23  1  0  0  0  0
 22116  1  0  0  0  0
 22117  1  0  0  0  0
 23 24  1  0  0  0  0
 23118  1  0  0  0  0
 23119  1  0  0  0  0
 24 25  1  0  0  0  0
 24120  1  0  0  0  0
 24121  1  0  0  0  0
 25 26  1  0  0  0  0
 25122  1  0  0  0  0
 25123  1  0  0  0  0
 26 27  1  0  0  0  0
 26124  1  0  0  0  0
 26125  1  0  0  0  0
 27 28  1  0  0  0  0
 27126  1  0  0  0  0
 27127  1  0  0  0  0
 28 29  1  0  0  0  0
 28128  1  0  0  0  0
 28129  1  0  0  0  0
 29 30  1  0  0  0  0
 29130  1  0  0  0  0
 29131  1  0  0  0  0
 30 31  1  0  0  0  0
 30132  1  0  0  0  0
 30133  1  0  0  0  0
 31 32  1  0  0  0  0
 31134  1  0  0  0  0
 31135  1  0  0  0  0
 32 33  1  0  0  0  0
 32136  1  0  0  0  0
 32137  1  0  0  0  0
 33 34  1  0  0  0  0
 33138  1  0  0  0  0
 33139  1  0  0  0  0
 34 35  1  0  0  0  0
 34140  1  0  0  0  0
 34141  1  0  0  0  0
 35 36  1  0  0  0  0
 35142  1  0  0  0  0
 35143  1  0  0  0  0
 36 37  1  0  0  0  0
 36144  1  0  0  0  0
 36145  1  0  0  0  0
 37 38  1  0  0  0  0
 37146  1  0  0  0  0
 37147  1  0  0  0  0
 38 39  1  0  0  0  0
 38148  1  0  0  0  0
 38149  1  0  0  0  0
 39 40  1  0  0  0  0
 40 41  1  0  0  0  0
 40150  1  0  0  0  0
 40151  1  0  0  0  0
 41 42  1  0  0  0  0
 42 43  1  0  0  0  0
 42152  1  0  0  0  0
 42153  1  0  0  0  0
 43 44  1  0  0  0  0
 44 45  1  0  0  0  0
 44154  1  0  0  0  0
 44155  1  0  0  0  0
 45 46  1  0  0  0  0
 46 47  1  0  0  0  0
 46156  1  0  0  0  0
 46157  1  0  0  0  0
 47 48  1  0  0  0  0
 48 49  1  0  0  0  0
 48158  1  0  0  0  0
 48159  1  0  0  0  0
 49 50  1  0  0  0  0
 50 51  1  0  0  0  0
 50160  1  0  0  0  0
 50161  1  0  0  0  0
 51 52  1  0  0  0  0
 52 53  1  0  0  0  0
 52162  1  0  0  0  0
 52163  1  0  0  0  0
 53 54  1  0  0  0  0
 54 55  1  0  0  0  0
 54164  1  0  0  0  0
 54165  1  0  0  0  0
 55 56  1  0  0  0  0
 56 57  1  0  0  0  0
 57 58  1  0  0  0  0
 58 59  1  0  0  0  0
 59 60  1  0  0  0  0
 60 61  1  0  0  0  0
 61 62  1  0  0  0  0
 62 63  1  0  0  0  0
 63 64  1  0  0  0  0
 64 65  1  0  0  0  0
 65 66  1  0  0  0  0
 66 67  1  0  0  0  0
 67 68  1  0  0  0  0
 68 69  1  0  0  0  0
 69 70  1  0  0  0  0
 70 71  1  0  0  0  0
 71 72  1  0  0  0  0
 72 73  1  0  0  0  0
 73 74  1  0  0  0  0
 74 75  1  0  0  0  0
 75 76  1  0  0  0  0
 76 77  1  0  0  0  0
 77 78  1  0  0  0  0
 78 79  1  0  0  0  0
 79166  1  0  0  0  0
M  END
$$$$
