
 OpenBabel04232216483D

 67 68  0  0  0  0  0  0  0  0999 V2000
    7.6518   -2.8249    0.8034 C   0  0  0  0  0  0  0  0  0  0  0  0
    6.8130   -1.8884   -0.0898 C   0  0  0  0  0  0  0  0  0  0  0  0
    7.2876   -0.6274    0.0198 C   0  0  0  0  0  0  0  0  0  0  0  0
    6.3145    0.4105    0.1089 C   0  0  0  0  0  0  0  0  0  0  0  0
    5.1838    0.2324    0.8743 C   0  0  0  0  0  0  0  0  0  0  0  0
    5.0970   -0.7990    1.9952 C   0  0  0  0  0  0  0  0  0  0  0  0
    4.6825   -2.2121    1.7400 N   0  0  0  0  0  0  0  0  0  0  0  0
    4.7186   -2.8089    0.6416 N   0  0  0  0  0  0  0  0  0  0  0  0
    4.0234    0.8751    0.3257 C   0  0  0  0  0  0  0  0  0  0  0  0
    2.8406    0.2810    0.0991 C   0  0  0  0  0  0  0  0  0  0  0  0
    2.0430   -0.8125    0.8077 C   0  0  0  0  0  0  0  0  0  0  0  0
    0.7895   -0.2215    1.4689 C   0  0  0  0  0  0  0  0  0  0  0  0
   -0.1548   -1.2369    2.1227 C   0  0  0  0  0  0  0  0  0  0  0  0
    0.5114   -2.1244    3.1722 C   0  0  0  0  0  0  0  0  0  0  0  0
   -0.5311   -2.8860    3.9883 C   0  0  0  0  0  0  0  0  0  0  0  0
    0.1425   -3.7701    5.0378 C   0  0  0  0  0  0  0  0  0  0  0  0
   -0.8569   -4.4954    5.9315 C   0  0  0  0  0  0  0  0  0  0  0  0
   -1.7681   -5.4452    5.1598 C   0  0  0  0  0  0  0  0  0  0  0  0
   -2.7194   -6.1380    6.1221 C   0  0  0  0  0  0  0  0  0  0  0  0
   -3.6612   -7.0781    5.3832 C   0  0  0  0  0  0  0  0  0  0  0  0
   -4.5992   -7.7477    6.3795 C   0  0  0  0  0  0  0  0  0  0  0  0
   -5.5499   -8.7085    5.6780 C   0  0  0  0  0  0  0  0  0  0  0  0
   -6.4723   -9.3730    6.6828 C   0  0  0  0  0  0  0  0  0  0  0  0
    2.3840    0.4243   -1.2651 C   0  0  0  0  0  0  0  0  0  0  0  0
    2.6341   -0.5622   -2.1265 C   0  0  0  0  0  0  0  0  0  0  0  0
    3.6915   -1.5822   -2.2401 C   0  0  0  0  0  0  0  0  0  0  0  0
    4.7426   -2.1353   -1.6006 C   0  0  0  0  0  0  0  0  0  0  0  0
    5.4013   -2.1493   -0.3186 N   0  0  0  0  0  0  0  0  0  0  0  0
    8.7074   -2.5328    0.8353 H   0  0  0  0  0  0  0  0  0  0  0  0
    7.6077   -3.8795    0.5103 H   0  0  0  0  0  0  0  0  0  0  0  0
    7.3032   -2.7488    1.8426 H   0  0  0  0  0  0  0  0  0  0  0  0
    8.3001   -0.3939    0.3526 H   0  0  0  0  0  0  0  0  0  0  0  0
    6.3795    1.1403   -0.6902 H   0  0  0  0  0  0  0  0  0  0  0  0
    6.0513   -0.8474    2.5367 H   0  0  0  0  0  0  0  0  0  0  0  0
    4.3876   -0.4189    2.7380 H   0  0  0  0  0  0  0  0  0  0  0  0
    4.3143    1.6516   -0.3981 H   0  0  0  0  0  0  0  0  0  0  0  0
    2.6158   -1.3019    1.5850 H   0  0  0  0  0  0  0  0  0  0  0  0
    1.7396   -1.6069    0.1182 H   0  0  0  0  0  0  0  0  0  0  0  0
    0.2090    0.3361    0.7246 H   0  0  0  0  0  0  0  0  0  0  0  0
    1.1101    0.4964    2.2316 H   0  0  0  0  0  0  0  0  0  0  0  0
   -0.6287   -1.8642    1.3573 H   0  0  0  0  0  0  0  0  0  0  0  0
   -0.9621   -0.6662    2.5991 H   0  0  0  0  0  0  0  0  0  0  0  0
    1.1207   -1.5115    3.8466 H   0  0  0  0  0  0  0  0  0  0  0  0
    1.1797   -2.8433    2.6834 H   0  0  0  0  0  0  0  0  0  0  0  0
   -1.1408   -3.4919    3.3088 H   0  0  0  0  0  0  0  0  0  0  0  0
   -1.2072   -2.1799    4.4865 H   0  0  0  0  0  0  0  0  0  0  0  0
    0.7835   -3.1500    5.6764 H   0  0  0  0  0  0  0  0  0  0  0  0
    0.7943   -4.5023    4.5459 H   0  0  0  0  0  0  0  0  0  0  0  0
   -1.4645   -3.7600    6.4738 H   0  0  0  0  0  0  0  0  0  0  0  0
   -0.3011   -5.0637    6.6875 H   0  0  0  0  0  0  0  0  0  0  0  0
   -1.1678   -6.1867    4.6187 H   0  0  0  0  0  0  0  0  0  0  0  0
   -2.3592   -4.8986    4.4176 H   0  0  0  0  0  0  0  0  0  0  0  0
   -3.3059   -5.3839    6.6621 H   0  0  0  0  0  0  0  0  0  0  0  0
   -2.1463   -6.6997    6.8699 H   0  0  0  0  0  0  0  0  0  0  0  0
   -3.0836   -7.8364    4.8411 H   0  0  0  0  0  0  0  0  0  0  0  0
   -4.2426   -6.5189    4.6401 H   0  0  0  0  0  0  0  0  0  0  0  0
   -5.1737   -6.9814    6.9144 H   0  0  0  0  0  0  0  0  0  0  0  0
   -4.0103   -8.2899    7.1292 H   0  0  0  0  0  0  0  0  0  0  0  0
   -4.9777   -9.4742    5.1433 H   0  0  0  0  0  0  0  0  0  0  0  0
   -6.1460   -8.1663    4.9343 H   0  0  0  0  0  0  0  0  0  0  0  0
   -5.8982   -9.9400    7.4227 H   0  0  0  0  0  0  0  0  0  0  0  0
   -7.1537  -10.0633    6.1763 H   0  0  0  0  0  0  0  0  0  0  0  0
   -7.0728   -8.6270    7.2135 H   0  0  0  0  0  0  0  0  0  0  0  0
    2.6067    1.4303   -1.6960 H   0  0  0  0  0  0  0  0  0  0  0  0
    1.6724   -1.0333   -2.4500 H   0  0  0  0  0  0  0  0  0  0  0  0
    3.5357   -2.0227   -3.2313 H   0  0  0  0  0  0  0  0  0  0  0  0
    5.1454   -3.0005   -2.1318 H   0  0  0  0  0  0  0  0  0  0  0  0
  1  2  1  0  0  0  0
  1 29  1  0  0  0  0
  1 30  1  0  0  0  0
  1 31  1  0  0  0  0
  2  3  2  0  0  0  0
  2 28  1  0  0  0  0
  3  4  1  0  0  0  0
  3 32  1  0  0  0  0
  4  5  2  0  0  0  0
  4 33  1  0  0  0  0
  5  6  1  0  0  0  0
  5  9  1  0  0  0  0
  6  7  1  0  0  0  0
  6 34  1  0  0  0  0
  6 35  1  0  0  0  0
  7  8  2  0  0  0  0
  8 28  1  0  0  0  0
  9 10  2  3  0  0  0
  9 36  1  0  0  0  0
 10 11  1  0  0  0  0
 10 24  1  0  0  0  0
 11 12  1  0  0  0  0
 11 37  1  0  0  0  0
 11 38  1  0  0  0  0
 12 13  1  0  0  0  0
 12 39  1  0  0  0  0
 12 40  1  0  0  0  0
 13 14  1  0  0  0  0
 13 41  1  0  0  0  0
 13 42  1  0  0  0  0
 14 15  1  0  0  0  0
 14 43  1  0  0  0  0
 14 44  1  0  0  0  0
 15 16  1  0  0  0  0
 15 45  1  0  0  0  0
 15 46  1  0  0  0  0
 16 17  1  0  0  0  0
 16 47  1  0  0  0  0
 16 48  1  0  0  0  0
 17 18  1  0  0  0  0
 17 49  1  0  0  0  0
 17 50  1  0  0  0  0
 18 19  1  0  0  0  0
 18 51  1  0  0  0  0
 18 52  1  0  0  0  0
 19 20  1  0  0  0  0
 19 53  1  0  0  0  0
 19 54  1  0  0  0  0
 20 21  1  0  0  0  0
 20 55  1  0  0  0  0
 20 56  1  0  0  0  0
 21 22  1  0  0  0  0
 21 57  1  0  0  0  0
 21 58  1  0  0  0  0
 22 23  1  0  0  0  0
 22 59  1  0  0  0  0
 22 60  1  0  0  0  0
 23 61  1  0  0  0  0
 23 62  1  0  0  0  0
 23 63  1  0  0  0  0
 24 25  2  3  0  0  0
 24 64  1  0  0  0  0
 25 26  1  0  0  0  0
 25 65  1  0  0  0  0
 26 27  2  3  0  0  0
 26 66  1  0  0  0  0
 27 28  1  0  0  0  0
 27 67  1  0  0  0  0
M  END
$$$$
