
 OpenBabel04232216443D

 59 60  0  0  0  0  0  0  0  0999 V2000
    5.4892    1.0450   -3.6981 C   0  0  0  0  0  0  0  0  0  0  0  0
    5.9032    2.4859   -3.2715 C   0  0  0  0  0  0  0  0  0  0  0  0
    5.0932    2.8236   -2.1910 C   0  0  0  0  0  0  0  0  0  0  0  0
    3.4823    2.9173   -2.1031 C   0  0  0  0  0  0  0  0  0  0  0  0
    2.3509    3.1801   -3.0839 C   0  0  0  0  0  0  0  0  0  0  0  0
    5.2559    2.0123   -0.8325 C   0  0  0  0  0  0  0  0  0  0  0  0
    5.7228    2.8878    0.2825 C   0  0  0  0  0  0  0  0  0  0  0  0
    7.2049    2.7373    0.2794 C   0  0  0  0  0  0  0  0  0  0  0  0
    7.8011    4.0059   -0.2292 C   0  0  0  0  0  0  0  0  0  0  0  0
    9.2945    3.8055   -0.1006 C   0  0  0  0  0  0  0  0  0  0  0  0
    9.9533    5.0919   -0.4537 C   0  0  0  0  0  0  0  0  0  0  0  0
   10.4884    4.8710   -1.8422 C   0  0  0  0  0  0  0  0  0  0  0  0
   11.5400    4.3098   -2.0955 O   0  0  0  0  0  0  0  0  0  0  0  0
    9.6561    5.5598   -2.8616 C   0  0  0  0  0  0  0  0  0  0  0  0
    8.4865    5.0372   -3.4123 C   0  0  0  0  0  0  0  0  0  0  0  0
    8.2579    3.6213   -3.8654 C   0  0  0  0  0  0  0  0  0  0  0  0
    9.5112    3.2475   -4.8677 C   0  0  0  0  0  0  0  0  0  0  0  0
   10.2806    4.2331   -5.8969 C   0  0  0  0  0  0  0  0  0  0  0  0
   10.7466    5.7251   -5.7368 C   0  0  0  0  0  0  0  0  0  0  0  0
    9.6883    6.8456   -5.9498 C   0  0  0  0  0  0  0  0  0  0  0  0
    9.8466    8.1142   -5.0744 C   0  0  0  0  0  0  0  0  0  0  0  0
    9.4072    7.9943   -3.6108 C   0  0  0  0  0  0  0  0  0  0  0  0
   10.1898    6.9651   -2.8462 C   0  0  0  0  0  0  0  0  0  0  0  0
    7.2706    2.7415   -3.7367 N   0  0  0  0  0  0  0  0  0  0  0  0
    4.3949    0.9087   -3.6979 H   0  0  0  0  0  0  0  0  0  0  0  0
    5.8784    0.3012   -2.9731 H   0  0  0  0  0  0  0  0  0  0  0  0
    5.8560    0.7525   -4.6767 H   0  0  0  0  0  0  0  0  0  0  0  0
    3.3223    3.6554   -1.2978 H   0  0  0  0  0  0  0  0  0  0  0  0
    3.1145    1.9565   -1.7035 H   0  0  0  0  0  0  0  0  0  0  0  0
    2.5797    3.9255   -3.8413 H   0  0  0  0  0  0  0  0  0  0  0  0
    1.4857    3.5504   -2.4972 H   0  0  0  0  0  0  0  0  0  0  0  0
    1.9846    2.2519   -3.5357 H   0  0  0  0  0  0  0  0  0  0  0  0
    5.8364    1.0958   -0.9732 H   0  0  0  0  0  0  0  0  0  0  0  0
    4.3126    1.5926   -0.4441 H   0  0  0  0  0  0  0  0  0  0  0  0
    5.3181    2.5508    1.2432 H   0  0  0  0  0  0  0  0  0  0  0  0
    5.3736    3.9213    0.1523 H   0  0  0  0  0  0  0  0  0  0  0  0
    7.5531    1.9163   -0.3575 H   0  0  0  0  0  0  0  0  0  0  0  0
    7.5603    2.5092    1.2971 H   0  0  0  0  0  0  0  0  0  0  0  0
    7.4416    4.8714    0.3394 H   0  0  0  0  0  0  0  0  0  0  0  0
    7.4899    4.1723   -1.2650 H   0  0  0  0  0  0  0  0  0  0  0  0
    9.5923    2.9865   -0.7638 H   0  0  0  0  0  0  0  0  0  0  0  0
    9.5463    3.5243    0.9155 H   0  0  0  0  0  0  0  0  0  0  0  0
   10.7264    5.3903    0.2523 H   0  0  0  0  0  0  0  0  0  0  0  0
    9.2316    5.9250   -0.4692 H   0  0  0  0  0  0  0  0  0  0  0  0
    7.8699    5.7116   -3.9960 H   0  0  0  0  0  0  0  0  0  0  0  0
    9.1559    2.4241   -5.5093 H   0  0  0  0  0  0  0  0  0  0  0  0
   10.2863    2.7937   -4.2334 H   0  0  0  0  0  0  0  0  0  0  0  0
    9.7982    4.1616   -6.8796 H   0  0  0  0  0  0  0  0  0  0  0  0
   11.2500    3.7173   -6.0521 H   0  0  0  0  0  0  0  0  0  0  0  0
   11.4754    5.8959   -6.5485 H   0  0  0  0  0  0  0  0  0  0  0  0
   11.3739    5.8495   -4.8559 H   0  0  0  0  0  0  0  0  0  0  0  0
    8.6860    6.4593   -5.8713 H   0  0  0  0  0  0  0  0  0  0  0  0
    9.8025    7.1934   -6.9843 H   0  0  0  0  0  0  0  0  0  0  0  0
    9.2211    8.9126   -5.5154 H   0  0  0  0  0  0  0  0  0  0  0  0
   10.8745    8.4931   -5.1082 H   0  0  0  0  0  0  0  0  0  0  0  0
    8.3239    7.8045   -3.5505 H   0  0  0  0  0  0  0  0  0  0  0  0
    9.5387    8.9769   -3.1361 H   0  0  0  0  0  0  0  0  0  0  0  0
   10.2733    7.3386   -1.8172 H   0  0  0  0  0  0  0  0  0  0  0  0
   11.2740    7.0121   -3.1830 H   0  0  0  0  0  0  0  0  0  0  0  0
  1  2  1  0  0  0  0
  1 25  1  0  0  0  0
  1 26  1  0  0  0  0
  1 27  1  0  0  0  0
  2  3  2  3  0  0  0
  2 24  1  0  0  0  0
  3  4  1  0  0  0  0
  3  6  1  0  0  0  0
  4  5  1  0  0  0  0
  4 28  1  0  0  0  0
  4 29  1  0  0  0  0
  5 30  1  0  0  0  0
  5 31  1  0  0  0  0
  5 32  1  0  0  0  0
  6  7  1  0  0  0  0
  6 33  1  0  0  0  0
  6 34  1  0  0  0  0
  7  8  1  0  0  0  0
  7 35  1  0  0  0  0
  7 36  1  0  0  0  0
  8  9  1  0  0  0  0
  8 37  1  0  0  0  0
  8 38  1  0  0  0  0
  9 10  1  0  0  0  0
  9 39  1  0  0  0  0
  9 40  1  0  0  0  0
 10 11  1  0  0  0  0
 10 41  1  0  0  0  0
 10 42  1  0  0  0  0
 11 12  1  0  0  0  0
 11 43  1  0  0  0  0
 11 44  1  0  0  0  0
 12 13  2  0  0  0  0
 12 14  1  0  0  0  0
 14 15  2  3  0  0  0
 14 23  1  0  0  0  0
 15 16  1  0  0  0  0
 15 45  1  0  0  0  0
 16 17  1  0  0  0  0
 16 24  2  3  0  0  0
 17 18  1  0  0  0  0
 17 46  1  0  0  0  0
 17 47  1  0  0  0  0
 18 19  1  0  0  0  0
 18 48  1  0  0  0  0
 18 49  1  0  0  0  0
 19 20  1  0  0  0  0
 19 50  1  0  0  0  0
 19 51  1  0  0  0  0
 20 21  1  0  0  0  0
 20 52  1  0  0  0  0
 20 53  1  0  0  0  0
 21 22  1  0  0  0  0
 21 54  1  0  0  0  0
 21 55  1  0  0  0  0
 22 23  1  0  0  0  0
 22 56  1  0  0  0  0
 22 57  1  0  0  0  0
 23 58  1  0  0  0  0
 23 59  1  0  0  0  0
M  END
$$$$
