
 OpenBabel04232216443D

 45 47  0  0  0  0  0  0  0  0999 V2000
    2.7750   -1.2708   -1.2055 C   0  0  0  0  0  0  0  0  0  0  0  0
    4.1146   -0.5535   -1.3065 C   0  0  0  0  0  0  0  0  0  0  0  0
    4.0863    0.7004   -0.7961 C   0  0  0  0  0  0  0  0  0  0  0  0
    3.2606    1.7550   -1.5498 C   0  0  0  0  0  0  0  0  0  0  0  0
    2.9375    1.4209   -3.0386 C   0  0  0  0  0  0  0  0  0  0  0  0
    4.9488    0.9227    0.4127 C   0  0  0  0  0  0  0  0  0  0  0  0
    4.5308    0.1610    1.6633 C   0  0  0  0  0  0  0  0  0  0  0  0
    3.1724   -0.2998    2.1519 C   0  0  0  0  0  0  0  0  0  0  0  0
    6.2894    1.1974    0.2882 C   0  0  0  0  0  0  0  0  0  0  0  0
    6.4912    1.8628   -1.0338 C   0  0  0  0  0  0  0  0  0  0  0  0
    6.8223    1.3198   -2.1656 N   0  0  0  0  0  0  0  0  0  0  0  0
    7.3080    0.0429   -2.0891 N   0  0  0  0  0  0  0  0  0  0  0  0
    8.7940    0.0632   -2.1460 C   0  0  0  0  0  0  0  0  0  0  0  0
    9.5128    0.9237   -0.6959 S   0  0  0  0  0  0  0  0  0  0  0  0
    8.5397    0.1006    0.5038 C   0  0  0  0  0  0  0  0  0  0  0  0
    8.9448   -1.0999    0.8687 N   0  0  0  0  0  0  0  0  0  0  0  0
   10.0076   -1.1032    1.7960 N   0  0  0  0  0  0  0  0  0  0  0  0
    9.6885   -0.6727    2.9332 N   0  0  0  0  0  0  0  0  0  0  0  0
    8.9838   -1.5739    3.7606 N   0  0  0  0  0  0  0  0  0  0  0  0
    7.6886   -1.5761    3.6583 C   0  0  0  0  0  0  0  0  0  0  0  0
    6.9562   -0.9504    2.7011 N   0  0  0  0  0  0  0  0  0  0  0  0
    7.2268    0.2957    2.4161 C   0  0  0  0  0  0  0  0  0  0  0  0
    7.4042    0.7442    1.0937 N   0  0  0  0  0  0  0  0  0  0  0  0
    6.5858   -1.0941   -1.6842 C   0  0  0  0  0  0  0  0  0  0  0  0
    5.3151   -1.3919   -1.3351 C   0  0  0  0  0  0  0  0  0  0  0  0
    2.2585   -1.3717   -2.1585 H   0  0  0  0  0  0  0  0  0  0  0  0
    2.0979   -0.7191   -0.5340 H   0  0  0  0  0  0  0  0  0  0  0  0
    2.8842   -2.2605   -0.7490 H   0  0  0  0  0  0  0  0  0  0  0  0
    3.8101    2.7029   -1.5788 H   0  0  0  0  0  0  0  0  0  0  0  0
    2.3157    1.9368   -1.0297 H   0  0  0  0  0  0  0  0  0  0  0  0
    3.8477    1.2657   -3.6327 H   0  0  0  0  0  0  0  0  0  0  0  0
    2.3731    2.2316   -3.5141 H   0  0  0  0  0  0  0  0  0  0  0  0
    2.3189    0.5248   -3.1512 H   0  0  0  0  0  0  0  0  0  0  0  0
    4.9070    0.7526    2.5062 H   0  0  0  0  0  0  0  0  0  0  0  0
    5.0585   -0.7907    1.5688 H   0  0  0  0  0  0  0  0  0  0  0  0
    2.4832    0.5225    2.3345 H   0  0  0  0  0  0  0  0  0  0  0  0
    3.3442   -0.8107    3.1136 H   0  0  0  0  0  0  0  0  0  0  0  0
    2.7224   -1.0525    1.5071 H   0  0  0  0  0  0  0  0  0  0  0  0
    6.1957    2.9305   -1.0629 H   0  0  0  0  0  0  0  0  0  0  0  0
    9.1083    0.6468   -3.0202 H   0  0  0  0  0  0  0  0  0  0  0  0
    9.2201   -0.9380   -2.2516 H   0  0  0  0  0  0  0  0  0  0  0  0
    7.1217   -2.2396    4.3483 H   0  0  0  0  0  0  0  0  0  0  0  0
    7.7824    0.9482    3.1137 H   0  0  0  0  0  0  0  0  0  0  0  0
    7.2835   -1.9289   -1.5951 H   0  0  0  0  0  0  0  0  0  0  0  0
    5.1372   -2.4222   -1.0290 H   0  0  0  0  0  0  0  0  0  0  0  0
  1  2  1  0  0  0  0
  1 26  1  0  0  0  0
  1 27  1  0  0  0  0
  1 28  1  0  0  0  0
  2  3  2  0  0  0  0
  2 25  1  0  0  0  0
  3  4  1  0  0  0  0
  3  6  1  0  0  0  0
  4  5  1  0  0  0  0
  4 29  1  0  0  0  0
  4 30  1  0  0  0  0
  5 31  1  0  0  0  0
  5 32  1  0  0  0  0
  5 33  1  0  0  0  0
  6  7  1  0  0  0  0
  6  9  2  0  0  0  0
  7  8  1  0  0  0  0
  7 34  1  0  0  0  0
  7 35  1  0  0  0  0
  8 36  1  0  0  0  0
  8 37  1  0  0  0  0
  8 38  1  0  0  0  0
  9 10  1  0  0  0  0
  9 23  1  0  0  0  0
 10 11  2  0  0  0  0
 10 39  1  0  0  0  0
 11 12  1  0  0  0  0
 12 13  1  0  0  0  0
 12 24  1  0  0  0  0
 13 14  1  0  0  0  0
 13 40  1  0  0  0  0
 13 41  1  0  0  0  0
 14 15  1  0  0  0  0
 15 16  2  0  0  0  0
 15 23  1  0  0  0  0
 16 17  1  0  0  0  0
 17 18  2  0  0  0  0
 18 19  1  0  0  0  0
 19 20  2  0  0  0  0
 20 21  1  0  0  0  0
 20 42  1  0  0  0  0
 21 22  2  0  0  0  0
 22 23  1  0  0  0  0
 22 43  1  0  0  0  0
 24 25  2  0  0  0  0
 24 44  1  0  0  0  0
 25 45  1  0  0  0  0
M  END
$$$$
