
 OpenBabel04232216543D

 66 66  0  0  0  0  0  0  0  0999 V2000
    1.0117   -0.0700    0.1167 C   0  0  0  0  0  0  0  0  0  0  0  0
    2.5312   -0.0646    0.1080 C   0  0  0  0  0  0  0  0  0  0  0  0
    3.0691   -0.4960   -1.2522 C   0  0  0  0  0  0  0  0  0  0  0  0
    4.5927   -0.4918   -1.2609 C   0  0  0  0  0  0  0  0  0  0  0  0
    5.0525   -0.9213   -2.5830 N   0  0  0  0  0  0  0  0  0  0  0  0
    6.4934   -0.9049   -2.5825 N   0  0  0  0  0  0  0  0  0  0  0  0
    6.9598   -1.3177   -3.9042 C   0  0  0  0  0  0  0  0  0  0  0  0
    8.4820   -1.3106   -3.9066 C   0  0  0  0  0  0  0  0  0  0  0  0
    9.0073   -1.7358   -5.2688 C   0  0  0  0  0  0  0  0  0  0  0  0
   10.5270   -1.7273   -5.2741 C   0  0  0  0  0  0  0  0  0  0  0  0
   11.0407   -2.1547   -6.6379 C   0  0  0  0  0  0  0  0  0  0  0  0
   12.5590   -2.1440   -6.6593 C   0  0  0  0  0  0  0  0  0  0  0  0
   13.0563   -2.5744   -8.0296 C   0  0  0  0  0  0  0  0  0  0  0  0
   14.5746   -2.6165   -8.0453 C   0  0  0  0  0  0  0  0  0  0  0  0
   15.1106   -3.1222   -9.3723 C   0  0  0  0  0  0  0  0  0  0  0  0
   14.3403   -3.4413  -10.2756 O   0  0  0  0  0  0  0  0  0  0  0  0
   16.6082   -3.2373   -9.5203 C   0  0  0  0  0  0  0  0  0  0  0  0
   17.1843   -3.1914  -10.7473 C   0  0  0  0  0  0  0  0  0  0  0  0
   18.5742   -3.2225  -10.9004 N   0  0  0  0  0  0  0  0  0  0  0  0
   19.3370   -1.9905  -10.6145 C   0  0  0  0  0  0  0  0  0  0  0  0
   19.1238   -1.4309   -9.2151 C   0  0  0  0  0  0  0  0  0  0  0  0
   18.8019   -0.2653   -9.0030 O   0  0  0  0  0  0  0  0  0  0  0  0
   19.4708   -2.2596   -8.1961 O   0  0  0  0  0  0  0  0  0  0  0  0
   18.8525   -3.5564   -8.1493 C   0  0  0  0  0  0  0  0  0  0  0  0
   17.3272   -3.4423   -8.1933 C   0  0  0  0  0  0  0  0  0  0  0  0
   16.4244   -3.0317  -12.0631 C   0  0  0  0  0  0  0  0  0  0  0  0
   15.9533   -4.3573  -12.6509 C   0  0  0  0  0  0  0  0  0  0  0  0
    0.6383    0.2424    1.0952 H   0  0  0  0  0  0  0  0  0  0  0  0
    0.6251   -1.0722   -0.0938 H   0  0  0  0  0  0  0  0  0  0  0  0
    0.6153    0.6182   -0.6367 H   0  0  0  0  0  0  0  0  0  0  0  0
    2.9029   -0.7390    0.8887 H   0  0  0  0  0  0  0  0  0  0  0  0
    2.8927    0.9420    0.3486 H   0  0  0  0  0  0  0  0  0  0  0  0
    2.6910    0.1807   -2.0290 H   0  0  0  0  0  0  0  0  0  0  0  0
    2.7001   -1.5013   -1.4930 H   0  0  0  0  0  0  0  0  0  0  0  0
    4.9659   -1.1765   -0.4892 H   0  0  0  0  0  0  0  0  0  0  0  0
    4.9662    0.5144   -1.0334 H   0  0  0  0  0  0  0  0  0  0  0  0
    4.6824   -0.2653   -3.2795 H   0  0  0  0  0  0  0  0  0  0  0  0
    6.8679   -1.5636   -1.8897 H   0  0  0  0  0  0  0  0  0  0  0  0
    6.5914   -0.6290   -4.6746 H   0  0  0  0  0  0  0  0  0  0  0  0
    6.5933   -2.3258   -4.1453 H   0  0  0  0  0  0  0  0  0  0  0  0
    8.8663   -1.9916   -3.1366 H   0  0  0  0  0  0  0  0  0  0  0  0
    8.8543   -0.3061   -3.6658 H   0  0  0  0  0  0  0  0  0  0  0  0
    8.6300   -1.0566   -6.0434 H   0  0  0  0  0  0  0  0  0  0  0  0
    8.6407   -2.7406   -5.5127 H   0  0  0  0  0  0  0  0  0  0  0  0
   10.9078   -2.4074   -4.5020 H   0  0  0  0  0  0  0  0  0  0  0  0
   10.8970   -0.7232   -5.0338 H   0  0  0  0  0  0  0  0  0  0  0  0
   10.6542   -1.4795   -7.4111 H   0  0  0  0  0  0  0  0  0  0  0  0
   10.6736   -3.1614   -6.8735 H   0  0  0  0  0  0  0  0  0  0  0  0
   12.9450   -2.8232   -5.8887 H   0  0  0  0  0  0  0  0  0  0  0  0
   12.9329   -1.1404   -6.4228 H   0  0  0  0  0  0  0  0  0  0  0  0
   12.6902   -1.8838   -8.7990 H   0  0  0  0  0  0  0  0  0  0  0  0
   12.6533   -3.5661   -8.2722 H   0  0  0  0  0  0  0  0  0  0  0  0
   14.9002   -3.2970   -7.2513 H   0  0  0  0  0  0  0  0  0  0  0  0
   14.9762   -1.6149   -7.8569 H   0  0  0  0  0  0  0  0  0  0  0  0
   18.8208   -3.5504  -11.8358 H   0  0  0  0  0  0  0  0  0  0  0  0
   19.0448   -1.2183  -11.3360 H   0  0  0  0  0  0  0  0  0  0  0  0
   20.4067   -2.1801  -10.7483 H   0  0  0  0  0  0  0  0  0  0  0  0
   19.1173   -3.9578   -7.1635 H   0  0  0  0  0  0  0  0  0  0  0  0
   19.2920   -4.2509   -8.8701 H   0  0  0  0  0  0  0  0  0  0  0  0
   17.0696   -2.6036   -7.5335 H   0  0  0  0  0  0  0  0  0  0  0  0
   16.9189   -4.3564   -7.7444 H   0  0  0  0  0  0  0  0  0  0  0  0
   17.0782   -2.5474  -12.8044 H   0  0  0  0  0  0  0  0  0  0  0  0
   15.5864   -2.3325  -11.9576 H   0  0  0  0  0  0  0  0  0  0  0  0
   16.8021   -4.9974  -12.9110 H   0  0  0  0  0  0  0  0  0  0  0  0
   15.3724   -4.1783  -13.5617 H   0  0  0  0  0  0  0  0  0  0  0  0
   15.3185   -4.9164  -11.9574 H   0  0  0  0  0  0  0  0  0  0  0  0
  1  2  1  0  0  0  0
  1 28  1  0  0  0  0
  1 29  1  0  0  0  0
  1 30  1  0  0  0  0
  2  3  1  0  0  0  0
  2 31  1  0  0  0  0
  2 32  1  0  0  0  0
  3  4  1  0  0  0  0
  3 33  1  0  0  0  0
  3 34  1  0  0  0  0
  4  5  1  0  0  0  0
  4 35  1  0  0  0  0
  4 36  1  0  0  0  0
  5  6  1  0  0  0  0
  5 37  1  0  0  0  0
  6  7  1  0  0  0  0
  6 38  1  0  0  0  0
  7  8  1  0  0  0  0
  7 39  1  0  0  0  0
  7 40  1  0  0  0  0
  8  9  1  0  0  0  0
  8 41  1  0  0  0  0
  8 42  1  0  0  0  0
  9 10  1  0  0  0  0
  9 43  1  0  0  0  0
  9 44  1  0  0  0  0
 10 11  1  0  0  0  0
 10 45  1  0  0  0  0
 10 46  1  0  0  0  0
 11 12  1  0  0  0  0
 11 47  1  0  0  0  0
 11 48  1  0  0  0  0
 12 13  1  0  0  0  0
 12 49  1  0  0  0  0
 12 50  1  0  0  0  0
 13 14  1  0  0  0  0
 13 51  1  0  0  0  0
 13 52  1  0  0  0  0
 14 15  1  0  0  0  0
 14 53  1  0  0  0  0
 14 54  1  0  0  0  0
 15 16  2  0  0  0  0
 15 17  1  0  0  0  0
 17 18  2  0  0  0  0
 17 25  1  0  0  0  0
 18 19  1  0  0  0  0
 18 26  1  0  0  0  0
 19 20  1  0  0  0  0
 19 55  1  0  0  0  0
 20 21  1  0  0  0  0
 20 56  1  0  0  0  0
 20 57  1  0  0  0  0
 21 22  2  0  0  0  0
 21 23  1  0  0  0  0
 23 24  1  0  0  0  0
 24 25  1  0  0  0  0
 24 58  1  0  0  0  0
 24 59  1  0  0  0  0
 25 60  1  0  0  0  0
 25 61  1  0  0  0  0
 26 27  1  0  0  0  0
 26 62  1  0  0  0  0
 26 63  1  0  0  0  0
 27 64  1  0  0  0  0
 27 65  1  0  0  0  0
 27 66  1  0  0  0  0
M  END
$$$$
