
 OpenBabel04232216393D

231231  0  0  1  0  0  0  0  0999 V2000
    5.1152    0.3039   -1.3799 C   0  0  0  0  0  0  0  0  0  0  0  0
    4.6054   -0.2547   -0.2923 C   0  0  0  0  0  0  0  0  0  0  0  0
    4.7779   -0.0835    1.1411 C   0  0  0  0  0  3  0  0  0  0  0  0
    4.1028   -1.3436    1.3870 C   0  0  0  0  0  0  0  0  0  0  0  0
    3.4112   -1.1556    0.0107 C   0  0  3  0  0  0  0  0  0  0  0  0
    3.1815   -2.3657   -0.8623 C   0  0  0  0  0  0  0  0  0  0  0  0
    2.2592   -3.3160   -0.0985 C   0  0  0  0  0  0  0  0  0  0  0  0
    1.9714   -4.5436   -0.9421 C   0  0  0  0  0  0  0  0  0  0  0  0
    1.0747   -5.4881   -0.1651 C   0  0  0  0  0  0  0  0  0  0  0  0
    0.7872   -6.7098   -1.0130 C   0  0  0  0  0  0  0  0  0  0  0  0
   -0.1075   -7.6666   -0.2537 C   0  0  0  0  0  0  0  0  0  0  0  0
   -0.3873   -8.8853   -1.1108 C   0  0  0  0  0  0  0  0  0  0  0  0
   -1.2788   -9.8510   -0.3563 C   0  0  0  0  0  0  0  0  0  0  0  0
   -1.5614  -11.0672   -1.2160 C   0  0  0  0  0  0  0  0  0  0  0  0
   -2.4558  -12.0304   -0.4609 C   0  0  0  0  0  0  0  0  0  0  0  0
   -2.7366  -13.2500   -1.3171 C   0  0  0  0  0  0  0  0  0  0  0  0
   -3.6317  -14.2140   -0.5628 C   0  0  0  0  0  0  0  0  0  0  0  0
   -3.9130  -15.4321   -1.4214 C   0  0  0  0  0  0  0  0  0  0  0  0
   -4.8087  -16.3965   -0.6679 C   0  0  0  0  0  0  0  0  0  0  0  0
   -5.0908  -17.6151   -1.5250 C   0  0  0  0  0  0  0  0  0  0  0  0
   -5.9821  -18.5792   -0.7699 C   0  0  0  0  0  0  0  0  0  0  0  0
   -6.2569  -19.7980   -1.6298 C   0  0  0  0  0  0  0  0  0  0  0  0
   -7.1586  -20.7566   -0.8734 C   0  0  0  0  0  0  0  0  0  0  0  0
   -7.4480  -21.9775   -1.7342 C   0  0  0  0  0  0  0  0  0  0  0  0
   -8.3376  -22.9432   -0.9773 C   0  0  0  0  0  0  0  0  0  0  0  0
   -8.6203  -24.1593   -1.8361 C   0  0  0  0  0  0  0  0  0  0  0  0
   -9.5163  -25.1255   -1.0805 C   0  0  0  0  0  0  0  0  0  0  0  0
   -9.7975  -26.3460   -1.9371 C   0  0  0  0  0  0  0  0  0  0  0  0
  -10.6927  -27.3098   -1.1824 C   0  0  0  0  0  0  0  0  0  0  0  0
  -10.9748  -28.5286   -2.0399 C   0  0  0  0  0  0  0  0  0  0  0  0
  -11.8700  -29.4927   -1.2852 C   0  0  0  0  0  0  0  0  0  0  0  0
  -12.1505  -30.7123   -2.1419 C   0  0  0  0  0  0  0  0  0  0  0  0
  -13.0464  -31.6762   -1.3876 C   0  0  0  0  0  0  0  0  0  0  0  0
  -13.3275  -32.8952   -2.2455 C   0  0  0  0  0  0  0  0  0  0  0  0
  -14.2220  -33.8595   -1.4893 C   0  0  0  0  0  0  0  0  0  0  0  0
  -14.5020  -35.0798   -2.3473 C   0  0  0  0  0  0  0  0  0  0  0  0
  -15.3957  -36.0444   -1.5910 C   0  0  0  0  0  0  0  0  0  0  0  0
  -15.6761  -37.2639   -2.4490 C   0  0  0  0  0  0  0  0  0  0  0  0
  -16.5697  -38.2293   -1.6913 C   0  0  0  0  0  0  0  0  0  0  0  0
  -16.8506  -39.4480   -2.5529 C   0  0  0  0  0  0  0  0  0  0  0  0
  -17.7435  -40.4138   -1.7914 C   0  0  0  0  0  0  0  0  0  0  0  0
  -18.0248  -41.6328   -2.6547 C   0  0  0  0  0  0  0  0  0  0  0  0
  -18.9191  -42.5975   -1.8937 C   0  0  0  0  0  0  0  0  0  0  0  0
  -19.1989  -43.8171   -2.7558 C   0  0  0  0  0  0  0  0  0  0  0  0
  -20.0948  -44.7815   -1.9970 C   0  0  0  0  0  0  0  0  0  0  0  0
  -20.3726  -46.0020   -2.8557 C   0  0  0  0  0  0  0  0  0  0  0  0
  -21.2674  -46.9661   -2.0995 C   0  0  0  0  0  0  0  0  0  0  0  0
  -21.5446  -48.1874   -2.9556 C   0  0  0  0  0  0  0  0  0  0  0  0
  -22.4399  -49.1515   -2.2004 C   0  0  0  0  0  0  0  0  0  0  0  0
  -22.7164  -50.3728   -3.0563 C   0  0  0  0  0  0  0  0  0  0  0  0
  -23.6118  -51.3382   -2.3004 C   0  0  0  0  0  0  0  0  0  0  0  0
  -23.8877  -52.5595   -3.1559 C   0  0  0  0  0  0  0  0  0  0  0  0
  -24.7836  -53.5233   -2.4020 C   0  0  0  0  0  0  0  0  0  0  0  0
  -25.0603  -54.7452   -3.2570 C   0  0  0  0  0  0  0  0  0  0  0  0
  -25.9576  -55.7081   -2.5034 C   0  0  0  0  0  0  0  0  0  0  0  0
  -26.2345  -56.9298   -3.3586 C   0  0  0  0  0  0  0  0  0  0  0  0
  -27.1297  -57.8938   -2.6041 C   0  0  0  0  0  0  0  0  0  0  0  0
  -27.4087  -59.1145   -3.4598 C   0  0  0  0  0  0  0  0  0  0  0  0
  -28.3024  -60.0793   -2.7041 C   0  0  0  0  0  0  0  0  0  0  0  0
  -28.5797  -61.3009   -3.5590 C   0  0  0  0  0  0  0  0  0  0  0  0
  -29.4718  -62.2665   -2.8029 C   0  0  0  0  0  0  0  0  0  0  0  0
  -29.7497  -63.4866   -3.6597 C   0  0  0  0  0  0  0  0  0  0  0  0
  -30.6401  -64.4536   -2.9035 C   0  0  0  0  0  0  0  0  0  0  0  0
  -30.9170  -65.6751   -3.7587 C   0  0  0  0  0  0  0  0  0  0  0  0
  -31.8093  -66.6408   -3.0027 C   0  0  0  0  0  0  0  0  0  0  0  0
  -32.0862  -67.8625   -3.8577 C   0  0  0  0  0  0  0  0  0  0  0  0
  -32.9802  -68.8273   -3.1028 C   0  0  0  0  0  0  0  0  0  0  0  0
  -33.2590  -70.0481   -3.9586 C   0  0  0  0  0  0  0  0  0  0  0  0
  -34.1513  -71.0135   -3.2016 C   0  0  0  0  0  0  0  0  0  0  0  0
  -34.4294  -72.2362   -4.0549 C   0  0  0  0  0  0  0  0  0  0  0  0
  -35.3242  -73.2001   -3.2980 C   0  0  0  0  0  0  0  0  0  0  0  0
  -35.6031  -74.4241   -4.1515 C   0  0  0  0  0  0  0  0  0  0  0  0
  -36.4963  -75.3922   -3.3960 C   0  0  0  0  0  0  0  0  0  0  0  0
  -36.7746  -76.6184   -4.2494 C   0  0  0  0  0  0  0  0  0  0  0  0
  -37.6692  -77.5932   -3.4978 C   0  0  0  0  0  0  0  0  0  0  0  0
  -37.9471  -78.8201   -4.3524 C   0  0  0  0  0  0  0  0  0  0  0  0
  -38.8445  -79.8038   -3.6107 C   0  0  0  0  0  0  0  0  0  0  0  0
  -39.1209  -81.0264   -4.4640 C   0  0  0  0  0  0  0  0  0  0  0  0
    5.9642    0.9788   -1.3155 H   0  0  0  0  0  0  0  0  0  0  0  0
    4.7180    0.0681   -2.3639 H   0  0  0  0  0  0  0  0  0  0  0  0
    5.1790    0.7253    1.7210 H   0  0  0  0  0  0  0  0  0  0  0  0
    3.4342   -1.3650    2.2508 H   0  0  0  0  0  0  0  0  0  0  0  0
    4.7712   -2.2131    1.4441 H   0  0  0  0  0  0  0  0  0  0  0  0
    2.4710   -0.5905    0.1248 H   0  0  0  0  0  0  0  0  0  0  0  0
    4.1131   -2.8649   -1.1040 H   0  0  0  0  0  0  0  0  0  0  0  0
    2.7061   -2.0625   -1.8057 H   0  0  0  0  0  0  0  0  0  0  0  0
    1.3273   -2.8208    0.1722 H   0  0  0  0  0  0  0  0  0  0  0  0
    2.7392   -3.6232    0.8378 H   0  0  0  0  0  0  0  0  0  0  0  0
    2.9072   -5.0441   -1.2087 H   0  0  0  0  0  0  0  0  0  0  0  0
    1.4790   -4.2424   -1.8747 H   0  0  0  0  0  0  0  0  0  0  0  0
    0.1361   -4.9867    0.1016 H   0  0  0  0  0  0  0  0  0  0  0  0
    1.5608   -5.7857    0.7718 H   0  0  0  0  0  0  0  0  0  0  0  0
    1.7279   -7.2080   -1.2793 H   0  0  0  0  0  0  0  0  0  0  0  0
    0.3033   -6.4078   -1.9504 H   0  0  0  0  0  0  0  0  0  0  0  0
   -1.0492   -7.1702    0.0122 H   0  0  0  0  0  0  0  0  0  0  0  0
    0.3758   -7.9696    0.6834 H   0  0  0  0  0  0  0  0  0  0  0  0
    0.5560   -9.3784   -1.3789 H   0  0  0  0  0  0  0  0  0  0  0  0
   -0.8710   -8.5807   -2.0476 H   0  0  0  0  0  0  0  0  0  0  0  0
   -2.2217   -9.3557   -0.0862 H   0  0  0  0  0  0  0  0  0  0  0  0
   -0.7937  -10.1563    0.5774 H   0  0  0  0  0  0  0  0  0  0  0  0
   -0.6200  -11.5612   -1.4841 H   0  0  0  0  0  0  0  0  0  0  0  0
   -2.0460  -10.7609   -2.1517 H   0  0  0  0  0  0  0  0  0  0  0  0
   -3.3978  -11.5357   -0.1939 H   0  0  0  0  0  0  0  0  0  0  0  0
   -1.9720  -12.3345    0.4759 H   0  0  0  0  0  0  0  0  0  0  0  0
   -1.7946  -13.7453   -1.5834 H   0  0  0  0  0  0  0  0  0  0  0  0
   -3.2199  -12.9462   -2.2541 H   0  0  0  0  0  0  0  0  0  0  0  0
   -4.5735  -13.7194   -0.2950 H   0  0  0  0  0  0  0  0  0  0  0  0
   -3.1479  -14.5196    0.3733 H   0  0  0  0  0  0  0  0  0  0  0  0
   -2.9713  -15.9271   -1.6891 H   0  0  0  0  0  0  0  0  0  0  0  0
   -4.3965  -15.1266   -2.3576 H   0  0  0  0  0  0  0  0  0  0  0  0
   -5.7500  -15.9010   -0.4001 H   0  0  0  0  0  0  0  0  0  0  0  0
   -4.3248  -16.7016    0.2688 H   0  0  0  0  0  0  0  0  0  0  0  0
   -4.1478  -18.1085   -1.7947 H   0  0  0  0  0  0  0  0  0  0  0  0
   -5.5753  -17.3090   -2.4612 H   0  0  0  0  0  0  0  0  0  0  0  0
   -6.9258  -18.0849   -0.5034 H   0  0  0  0  0  0  0  0  0  0  0  0
   -5.4990  -18.8812    0.1674 H   0  0  0  0  0  0  0  0  0  0  0  0
   -5.3160  -20.2982   -1.8828 H   0  0  0  0  0  0  0  0  0  0  0  0
   -6.7330  -19.4974   -2.5663 H   0  0  0  0  0  0  0  0  0  0  0  0
   -8.1105  -20.2502   -0.6235 H   0  0  0  0  0  0  0  0  0  0  0  0
   -6.6926  -21.0583    0.0631 H   0  0  0  0  0  0  0  0  0  0  0  0
   -6.5041  -22.4681   -2.0049 H   0  0  0  0  0  0  0  0  0  0  0  0
   -7.9337  -21.6686   -2.6665 H   0  0  0  0  0  0  0  0  0  0  0  0
   -9.2801  -22.4486   -0.7096 H   0  0  0  0  0  0  0  0  0  0  0  0
   -7.8536  -23.2477   -0.0438 H   0  0  0  0  0  0  0  0  0  0  0  0
   -7.6796  -24.6574   -2.1030 H   0  0  0  0  0  0  0  0  0  0  0  0
   -9.1055  -23.8576   -2.7717 H   0  0  0  0  0  0  0  0  0  0  0  0
  -10.4587  -24.6314   -0.8134 H   0  0  0  0  0  0  0  0  0  0  0  0
   -9.0333  -25.4302   -0.1433 H   0  0  0  0  0  0  0  0  0  0  0  0
   -8.8554  -26.8406   -2.2034 H   0  0  0  0  0  0  0  0  0  0  0  0
  -10.2804  -26.0415   -2.8737 H   0  0  0  0  0  0  0  0  0  0  0  0
  -11.6342  -26.8146   -0.9149 H   0  0  0  0  0  0  0  0  0  0  0  0
  -10.2088  -27.6147   -0.2464 H   0  0  0  0  0  0  0  0  0  0  0  0
  -10.0332  -29.0237   -2.3076 H   0  0  0  0  0  0  0  0  0  0  0  0
  -11.4587  -28.2236   -2.9759 H   0  0  0  0  0  0  0  0  0  0  0  0
  -12.8122  -28.9977   -1.0190 H   0  0  0  0  0  0  0  0  0  0  0  0
  -11.3871  -29.7965   -0.3483 H   0  0  0  0  0  0  0  0  0  0  0  0
  -11.2084  -31.2072   -2.4078 H   0  0  0  0  0  0  0  0  0  0  0  0
  -12.6331  -30.4082   -3.0790 H   0  0  0  0  0  0  0  0  0  0  0  0
  -13.9878  -31.1812   -1.1210 H   0  0  0  0  0  0  0  0  0  0  0  0
  -12.5629  -31.9811   -0.4513 H   0  0  0  0  0  0  0  0  0  0  0  0
  -12.3861  -33.3898   -2.5132 H   0  0  0  0  0  0  0  0  0  0  0  0
  -13.8123  -32.5906   -3.1809 H   0  0  0  0  0  0  0  0  0  0  0  0
  -15.1639  -33.3658   -1.2229 H   0  0  0  0  0  0  0  0  0  0  0  0
  -13.7377  -34.1639   -0.5539 H   0  0  0  0  0  0  0  0  0  0  0  0
  -13.5599  -35.5735   -2.6140 H   0  0  0  0  0  0  0  0  0  0  0  0
  -14.9865  -34.7758   -3.2828 H   0  0  0  0  0  0  0  0  0  0  0  0
  -16.3378  -35.5505   -1.3237 H   0  0  0  0  0  0  0  0  0  0  0  0
  -14.9112  -36.3484   -0.6553 H   0  0  0  0  0  0  0  0  0  0  0  0
  -14.7343  -37.7577   -2.7165 H   0  0  0  0  0  0  0  0  0  0  0  0
  -16.1610  -36.9600   -3.3843 H   0  0  0  0  0  0  0  0  0  0  0  0
  -17.5113  -37.7353   -1.4245 H   0  0  0  0  0  0  0  0  0  0  0  0
  -16.0852  -38.5332   -0.7575 H   0  0  0  0  0  0  0  0  0  0  0  0
  -15.9090  -39.9420   -2.8186 H   0  0  0  0  0  0  0  0  0  0  0  0
  -17.3346  -39.1451   -3.4853 H   0  0  0  0  0  0  0  0  0  0  0  0
  -18.6854  -39.9201   -1.5258 H   0  0  0  0  0  0  0  0  0  0  0  0
  -17.2598  -40.7176   -0.8591 H   0  0  0  0  0  0  0  0  0  0  0  0
  -17.0830  -42.1273   -2.9191 H   0  0  0  0  0  0  0  0  0  0  0  0
  -18.5075  -41.3296   -3.5876 H   0  0  0  0  0  0  0  0  0  0  0  0
  -19.8614  -42.1034   -1.6305 H   0  0  0  0  0  0  0  0  0  0  0  0
  -18.4373  -42.9004   -0.9602 H   0  0  0  0  0  0  0  0  0  0  0  0
  -18.2566  -44.3121   -3.0183 H   0  0  0  0  0  0  0  0  0  0  0  0
  -19.6800  -43.5150   -3.6904 H   0  0  0  0  0  0  0  0  0  0  0  0
  -21.0377  -44.2866   -1.7353 H   0  0  0  0  0  0  0  0  0  0  0  0
  -19.6145  -45.0832   -1.0611 H   0  0  0  0  0  0  0  0  0  0  0  0
  -19.4295  -46.4960   -3.1193 H   0  0  0  0  0  0  0  0  0  0  0  0
  -20.8546  -45.7004   -3.7924 H   0  0  0  0  0  0  0  0  0  0  0  0
  -22.2106  -46.4725   -1.8357 H   0  0  0  0  0  0  0  0  0  0  0  0
  -20.7854  -47.2681   -1.1620 H   0  0  0  0  0  0  0  0  0  0  0  0
  -20.6015  -48.6814   -3.2192 H   0  0  0  0  0  0  0  0  0  0  0  0
  -22.0266  -47.8857   -3.8934 H   0  0  0  0  0  0  0  0  0  0  0  0
  -23.3832  -48.6576   -1.9370 H   0  0  0  0  0  0  0  0  0  0  0  0
  -21.9581  -49.4531   -1.2627 H   0  0  0  0  0  0  0  0  0  0  0  0
  -21.7735  -50.8661   -3.3204 H   0  0  0  0  0  0  0  0  0  0  0  0
  -23.1996  -50.0714   -3.9936 H   0  0  0  0  0  0  0  0  0  0  0  0
  -24.5541  -50.8447   -2.0370 H   0  0  0  0  0  0  0  0  0  0  0  0
  -23.1282  -51.6393   -1.3626 H   0  0  0  0  0  0  0  0  0  0  0  0
  -22.9444  -53.0538   -3.4190 H   0  0  0  0  0  0  0  0  0  0  0  0
  -24.3688  -52.2582   -4.0946 H   0  0  0  0  0  0  0  0  0  0  0  0
  -25.7271  -53.0292   -2.1391 H   0  0  0  0  0  0  0  0  0  0  0  0
  -24.3026  -53.8247   -1.4630 H   0  0  0  0  0  0  0  0  0  0  0  0
  -24.1168  -55.2400   -3.5190 H   0  0  0  0  0  0  0  0  0  0  0  0
  -25.5401  -54.4436   -4.1962 H   0  0  0  0  0  0  0  0  0  0  0  0
  -26.9006  -55.2134   -2.2412 H   0  0  0  0  0  0  0  0  0  0  0  0
  -25.4768  -56.0101   -1.5640 H   0  0  0  0  0  0  0  0  0  0  0  0
  -25.2912  -57.4236   -3.6224 H   0  0  0  0  0  0  0  0  0  0  0  0
  -26.7164  -56.6280   -4.2968 H   0  0  0  0  0  0  0  0  0  0  0  0
  -28.0725  -57.3996   -2.3389 H   0  0  0  0  0  0  0  0  0  0  0  0
  -26.6471  -58.1965   -1.6665 H   0  0  0  0  0  0  0  0  0  0  0  0
  -26.4660  -59.6083   -3.7260 H   0  0  0  0  0  0  0  0  0  0  0  0
  -27.8925  -58.8121   -4.3967 H   0  0  0  0  0  0  0  0  0  0  0  0
  -29.2458  -59.5861   -2.4392 H   0  0  0  0  0  0  0  0  0  0  0  0
  -27.8192  -60.3808   -1.7666 H   0  0  0  0  0  0  0  0  0  0  0  0
  -27.6364  -61.7935   -3.8247 H   0  0  0  0  0  0  0  0  0  0  0  0
  -29.0639  -60.9997   -4.4960 H   0  0  0  0  0  0  0  0  0  0  0  0
  -30.4150  -61.7742   -2.5355 H   0  0  0  0  0  0  0  0  0  0  0  0
  -28.9870  -62.5693   -1.8666 H   0  0  0  0  0  0  0  0  0  0  0  0
  -28.8063  -63.9780   -3.9279 H   0  0  0  0  0  0  0  0  0  0  0  0
  -30.2355  -63.1838   -4.5956 H   0  0  0  0  0  0  0  0  0  0  0  0
  -31.5838  -63.9621   -2.6363 H   0  0  0  0  0  0  0  0  0  0  0  0
  -30.1546  -64.7549   -1.9671 H   0  0  0  0  0  0  0  0  0  0  0  0
  -29.9733  -66.1675   -4.0243 H   0  0  0  0  0  0  0  0  0  0  0  0
  -31.4010  -65.3739   -4.6960 H   0  0  0  0  0  0  0  0  0  0  0  0
  -32.7528  -66.1482   -2.7368 H   0  0  0  0  0  0  0  0  0  0  0  0
  -31.3251  -66.9420   -2.0657 H   0  0  0  0  0  0  0  0  0  0  0  0
  -31.1428  -68.3557   -4.1222 H   0  0  0  0  0  0  0  0  0  0  0  0
  -32.5690  -67.5610   -4.7958 H   0  0  0  0  0  0  0  0  0  0  0  0
  -33.9231  -68.3337   -2.8369 H   0  0  0  0  0  0  0  0  0  0  0  0
  -32.4967  -69.1298   -2.1656 H   0  0  0  0  0  0  0  0  0  0  0  0
  -32.3161  -70.5411   -4.2258 H   0  0  0  0  0  0  0  0  0  0  0  0
  -33.7441  -69.7459   -4.8950 H   0  0  0  0  0  0  0  0  0  0  0  0
  -35.0944  -70.5202   -2.9357 H   0  0  0  0  0  0  0  0  0  0  0  0
  -33.6667  -71.3137   -2.2644 H   0  0  0  0  0  0  0  0  0  0  0  0
  -33.4863  -72.7300   -4.3190 H   0  0  0  0  0  0  0  0  0  0  0  0
  -34.9123  -71.9355   -4.9929 H   0  0  0  0  0  0  0  0  0  0  0  0
  -36.2670  -72.7055   -3.0335 H   0  0  0  0  0  0  0  0  0  0  0  0
  -34.8407  -73.5000   -2.3601 H   0  0  0  0  0  0  0  0  0  0  0  0
  -34.6588  -74.9153   -4.4171 H   0  0  0  0  0  0  0  0  0  0  0  0
  -36.0863  -74.1220   -5.0888 H   0  0  0  0  0  0  0  0  0  0  0  0
  -37.4394  -74.8985   -3.1314 H   0  0  0  0  0  0  0  0  0  0  0  0
  -36.0117  -75.6902   -2.4582 H   0  0  0  0  0  0  0  0  0  0  0  0
  -35.8291  -77.1069   -4.5155 H   0  0  0  0  0  0  0  0  0  0  0  0
  -37.2571  -76.3147   -5.1866 H   0  0  0  0  0  0  0  0  0  0  0  0
  -38.6119  -77.0990   -3.2331 H   0  0  0  0  0  0  0  0  0  0  0  0
  -37.1844  -77.8908   -2.5600 H   0  0  0  0  0  0  0  0  0  0  0  0
  -37.0000  -79.3073   -4.6170 H   0  0  0  0  0  0  0  0  0  0  0  0
  -38.4265  -78.5147   -5.2911 H   0  0  0  0  0  0  0  0  0  0  0  0
  -39.7920  -79.3192   -3.3478 H   0  0  0  0  0  0  0  0  0  0  0  0
  -38.3658  -80.1119   -2.6740 H   0  0  0  0  0  0  0  0  0  0  0  0
  -39.6240  -80.7466   -5.3960 H   0  0  0  0  0  0  0  0  0  0  0  0
  -39.7647  -81.7283   -3.9270 H   0  0  0  0  0  0  0  0  0  0  0  0
  -38.1897  -81.5438   -4.7184 H   0  0  0  0  0  0  0  0  0  0  0  0
  1  2  2  0  0  0  0
  1 79  1  0  0  0  0
  1 80  1  0  0  0  0
  2  3  1  0  0  0  0
  2  5  1  0  0  0  0
  3  4  1  0  0  0  0
  3 81  1  0  0  0  0
  4  5  1  0  0  0  0
  4 82  1  0  0  0  0
  4 83  1  0  0  0  0
  5  6  1  0  0  0  0
  5 84  1  0  0  0  0
  6  7  1  0  0  0  0
  6 85  1  0  0  0  0
  6 86  1  0  0  0  0
  7  8  1  0  0  0  0
  7 87  1  0  0  0  0
  7 88  1  0  0  0  0
  8  9  1  0  0  0  0
  8 89  1  0  0  0  0
  8 90  1  0  0  0  0
  9 10  1  0  0  0  0
  9 91  1  0  0  0  0
  9 92  1  0  0  0  0
 10 11  1  0  0  0  0
 10 93  1  0  0  0  0
 10 94  1  0  0  0  0
 11 12  1  0  0  0  0
 11 95  1  0  0  0  0
 11 96  1  0  0  0  0
 12 13  1  0  0  0  0
 12 97  1  0  0  0  0
 12 98  1  0  0  0  0
 13 14  1  0  0  0  0
 13 99  1  0  0  0  0
 13100  1  0  0  0  0
 14 15  1  0  0  0  0
 14101  1  0  0  0  0
 14102  1  0  0  0  0
 15 16  1  0  0  0  0
 15103  1  0  0  0  0
 15104  1  0  0  0  0
 16 17  1  0  0  0  0
 16105  1  0  0  0  0
 16106  1  0  0  0  0
 17 18  1  0  0  0  0
 17107  1  0  0  0  0
 17108  1  0  0  0  0
 18 19  1  0  0  0  0
 18109  1  0  0  0  0
 18110  1  0  0  0  0
 19 20  1  0  0  0  0
 19111  1  0  0  0  0
 19112  1  0  0  0  0
 20 21  1  0  0  0  0
 20113  1  0  0  0  0
 20114  1  0  0  0  0
 21 22  1  0  0  0  0
 21115  1  0  0  0  0
 21116  1  0  0  0  0
 22 23  1  0  0  0  0
 22117  1  0  0  0  0
 22118  1  0  0  0  0
 23 24  1  0  0  0  0
 23119  1  0  0  0  0
 23120  1  0  0  0  0
 24 25  1  0  0  0  0
 24121  1  0  0  0  0
 24122  1  0  0  0  0
 25 26  1  0  0  0  0
 25123  1  0  0  0  0
 25124  1  0  0  0  0
 26 27  1  0  0  0  0
 26125  1  0  0  0  0
 26126  1  0  0  0  0
 27 28  1  0  0  0  0
 27127  1  0  0  0  0
 27128  1  0  0  0  0
 28 29  1  0  0  0  0
 28129  1  0  0  0  0
 28130  1  0  0  0  0
 29 30  1  0  0  0  0
 29131  1  0  0  0  0
 29132  1  0  0  0  0
 30 31  1  0  0  0  0
 30133  1  0  0  0  0
 30134  1  0  0  0  0
 31 32  1  0  0  0  0
 31135  1  0  0  0  0
 31136  1  0  0  0  0
 32 33  1  0  0  0  0
 32137  1  0  0  0  0
 32138  1  0  0  0  0
 33 34  1  0  0  0  0
 33139  1  0  0  0  0
 33140  1  0  0  0  0
 34 35  1  0  0  0  0
 34141  1  0  0  0  0
 34142  1  0  0  0  0
 35 36  1  0  0  0  0
 35143  1  0  0  0  0
 35144  1  0  0  0  0
 36 37  1  0  0  0  0
 36145  1  0  0  0  0
 36146  1  0  0  0  0
 37 38  1  0  0  0  0
 37147  1  0  0  0  0
 37148  1  0  0  0  0
 38 39  1  0  0  0  0
 38149  1  0  0  0  0
 38150  1  0  0  0  0
 39 40  1  0  0  0  0
 39151  1  0  0  0  0
 39152  1  0  0  0  0
 40 41  1  0  0  0  0
 40153  1  0  0  0  0
 40154  1  0  0  0  0
 41 42  1  0  0  0  0
 41155  1  0  0  0  0
 41156  1  0  0  0  0
 42 43  1  0  0  0  0
 42157  1  0  0  0  0
 42158  1  0  0  0  0
 43 44  1  0  0  0  0
 43159  1  0  0  0  0
 43160  1  0  0  0  0
 44 45  1  0  0  0  0
 44161  1  0  0  0  0
 44162  1  0  0  0  0
 45 46  1  0  0  0  0
 45163  1  0  0  0  0
 45164  1  0  0  0  0
 46 47  1  0  0  0  0
 46165  1  0  0  0  0
 46166  1  0  0  0  0
 47 48  1  0  0  0  0
 47167  1  0  0  0  0
 47168  1  0  0  0  0
 48 49  1  0  0  0  0
 48169  1  0  0  0  0
 48170  1  0  0  0  0
 49 50  1  0  0  0  0
 49171  1  0  0  0  0
 49172  1  0  0  0  0
 50 51  1  0  0  0  0
 50173  1  0  0  0  0
 50174  1  0  0  0  0
 51 52  1  0  0  0  0
 51175  1  0  0  0  0
 51176  1  0  0  0  0
 52 53  1  0  0  0  0
 52177  1  0  0  0  0
 52178  1  0  0  0  0
 53 54  1  0  0  0  0
 53179  1  0  0  0  0
 53180  1  0  0  0  0
 54 55  1  0  0  0  0
 54181  1  0  0  0  0
 54182  1  0  0  0  0
 55 56  1  0  0  0  0
 55183  1  0  0  0  0
 55184  1  0  0  0  0
 56 57  1  0  0  0  0
 56185  1  0  0  0  0
 56186  1  0  0  0  0
 57 58  1  0  0  0  0
 57187  1  0  0  0  0
 57188  1  0  0  0  0
 58 59  1  0  0  0  0
 58189  1  0  0  0  0
 58190  1  0  0  0  0
 59 60  1  0  0  0  0
 59191  1  0  0  0  0
 59192  1  0  0  0  0
 60 61  1  0  0  0  0
 60193  1  0  0  0  0
 60194  1  0  0  0  0
 61 62  1  0  0  0  0
 61195  1  0  0  0  0
 61196  1  0  0  0  0
 62 63  1  0  0  0  0
 62197  1  0  0  0  0
 62198  1  0  0  0  0
 63 64  1  0  0  0  0
 63199  1  0  0  0  0
 63200  1  0  0  0  0
 64 65  1  0  0  0  0
 64201  1  0  0  0  0
 64202  1  0  0  0  0
 65 66  1  0  0  0  0
 65203  1  0  0  0  0
 65204  1  0  0  0  0
 66 67  1  0  0  0  0
 66205  1  0  0  0  0
 66206  1  0  0  0  0
 67 68  1  0  0  0  0
 67207  1  0  0  0  0
 67208  1  0  0  0  0
 68 69  1  0  0  0  0
 68209  1  0  0  0  0
 68210  1  0  0  0  0
 69 70  1  0  0  0  0
 69211  1  0  0  0  0
 69212  1  0  0  0  0
 70 71  1  0  0  0  0
 70213  1  0  0  0  0
 70214  1  0  0  0  0
 71 72  1  0  0  0  0
 71215  1  0  0  0  0
 71216  1  0  0  0  0
 72 73  1  0  0  0  0
 72217  1  0  0  0  0
 72218  1  0  0  0  0
 73 74  1  0  0  0  0
 73219  1  0  0  0  0
 73220  1  0  0  0  0
 74 75  1  0  0  0  0
 74221  1  0  0  0  0
 74222  1  0  0  0  0
 75 76  1  0  0  0  0
 75223  1  0  0  0  0
 75224  1  0  0  0  0
 76 77  1  0  0  0  0
 76225  1  0  0  0  0
 76226  1  0  0  0  0
 77 78  1  0  0  0  0
 77227  1  0  0  0  0
 77228  1  0  0  0  0
 78229  1  0  0  0  0
 78230  1  0  0  0  0
 78231  1  0  0  0  0
M  END
$$$$
