
 OpenBabel04232216453D

 41 43  0  0  0  0  0  0  0  0999 V2000
    2.2171   -1.0595   -1.2328 C   0  0  0  0  0  0  0  0  0  0  0  0
    3.6153   -0.6028   -1.5692 C   0  0  0  0  0  0  0  0  0  0  0  0
    3.8701    0.8526   -1.4396 C   0  0  0  0  0  0  0  0  0  0  0  0
    4.7976    1.3702   -0.6108 C   0  0  0  0  0  0  0  0  0  0  0  0
    5.1427    0.8165    0.7357 C   0  0  0  0  0  0  0  0  0  0  0  0
    5.6329    2.3557   -1.2934 C   0  0  0  0  0  0  0  0  0  0  0  0
    6.9564    2.1781   -1.4906 C   0  0  0  0  0  0  0  0  0  0  0  0
    7.9900    1.6270   -0.5537 C   0  0  0  0  0  0  0  0  0  0  0  0
    7.3835    2.2788   -2.8667 C   0  0  0  0  0  0  0  0  0  0  0  0
    7.6103    3.3996   -3.5575 C   0  0  0  0  0  0  0  0  0  0  0  0
    7.8095    3.1207   -4.9521 C   0  0  0  0  0  0  0  0  0  0  0  0
    8.2014    4.2025   -5.8984 C   0  0  0  0  0  0  0  0  0  0  0  0
    7.0846    5.0573   -6.1083 O   0  0  0  0  0  0  0  0  0  0  0  0
    7.6272    1.8172   -5.1968 C   0  0  0  0  0  0  0  0  0  0  0  0
    7.2315    1.1895   -3.9011 C   0  0  0  0  0  0  0  0  0  0  0  0
    6.8701   -0.0521   -3.8581 N   0  0  0  0  0  0  0  0  0  0  0  0
    6.8654   -0.8024   -2.6570 C   0  0  0  0  0  0  0  0  0  0  0  0
    8.1192   -1.2116   -2.2047 C   0  0  0  0  0  0  0  0  0  0  0  0
    8.3805   -1.9663   -1.1155 N   0  0  0  0  0  0  0  0  0  0  0  0
    7.3016   -2.3839   -0.4585 C   0  0  0  0  0  0  0  0  0  0  0  0
    7.4951   -3.1201    0.6442 F   0  0  0  0  0  0  0  0  0  0  0  0
    6.0413   -2.1195   -0.7956 N   0  0  0  0  0  0  0  0  0  0  0  0
    5.8208   -1.3604   -1.9011 C   0  0  0  0  0  0  0  0  0  0  0  0
    4.4300   -1.4317   -2.1514 N   0  0  0  0  0  0  0  0  0  0  0  0
    1.5403   -0.8576   -2.0653 H   0  0  0  0  0  0  0  0  0  0  0  0
    1.8602   -0.5395   -0.3376 H   0  0  0  0  0  0  0  0  0  0  0  0
    2.2228   -2.1333   -1.0177 H   0  0  0  0  0  0  0  0  0  0  0  0
    3.6070    1.3352   -2.3787 H   0  0  0  0  0  0  0  0  0  0  0  0
    4.2409    0.4794    1.2583 H   0  0  0  0  0  0  0  0  0  0  0  0
    5.6053    1.5843    1.3656 H   0  0  0  0  0  0  0  0  0  0  0  0
    5.8225   -0.0322    0.6788 H   0  0  0  0  0  0  0  0  0  0  0  0
    5.0966    2.8515   -2.1121 H   0  0  0  0  0  0  0  0  0  0  0  0
    7.6443    0.7778    0.0314 H   0  0  0  0  0  0  0  0  0  0  0  0
    8.3052    2.4148    0.1383 H   0  0  0  0  0  0  0  0  0  0  0  0
    8.8907    1.2974   -1.0847 H   0  0  0  0  0  0  0  0  0  0  0  0
    7.5815    4.4042   -3.1552 H   0  0  0  0  0  0  0  0  0  0  0  0
    8.5261    3.8113   -6.8676 H   0  0  0  0  0  0  0  0  0  0  0  0
    9.0196    4.8068   -5.4899 H   0  0  0  0  0  0  0  0  0  0  0  0
    6.3441    4.4939   -6.3932 H   0  0  0  0  0  0  0  0  0  0  0  0
    7.7558    1.2729   -6.1170 H   0  0  0  0  0  0  0  0  0  0  0  0
    9.0124   -0.9247   -2.7566 H   0  0  0  0  0  0  0  0  0  0  0  0
  1  2  1  0  0  0  0
  1 25  1  0  0  0  0
  1 26  1  0  0  0  0
  1 27  1  0  0  0  0
  2  3  1  0  0  0  0
  2 24  2  0  0  0  0
  3  4  2  0  0  0  0
  3 28  1  0  0  0  0
  4  5  1  0  0  0  0
  4  6  1  0  0  0  0
  5 29  1  0  0  0  0
  5 30  1  0  0  0  0
  5 31  1  0  0  0  0
  6  7  2  0  0  0  0
  6 32  1  0  0  0  0
  7  8  1  0  0  0  0
  7  9  1  0  0  0  0
  8 33  1  0  0  0  0
  8 34  1  0  0  0  0
  8 35  1  0  0  0  0
  9 10  2  0  0  0  0
  9 15  1  0  0  0  0
 10 11  1  0  0  0  0
 10 36  1  0  0  0  0
 11 12  1  0  0  0  0
 11 14  2  0  0  0  0
 12 13  1  0  0  0  0
 12 37  1  0  0  0  0
 12 38  1  0  0  0  0
 13 39  1  0  0  0  0
 14 15  1  0  0  0  0
 14 40  1  0  0  0  0
 15 16  2  0  0  0  0
 16 17  1  0  0  0  0
 17 18  1  0  0  0  0
 17 23  2  0  0  0  0
 18 19  2  0  0  0  0
 18 41  1  0  0  0  0
 19 20  1  0  0  0  0
 20 21  1  0  0  0  0
 20 22  2  0  0  0  0
 22 23  1  0  0  0  0
 23 24  1  0  0  0  0
M  END
$$$$
