
 OpenBabel04232217023D

 94 93  0  0  0  0  0  0  0  0999 V2000
    5.3708    8.3972   -6.7588 O   0  0  0  0  0  0  0  0  0  0  0  0
    6.8104    8.5173   -6.8677 O   0  0  0  0  0  0  0  0  0  0  0  0
    7.3070    7.3616   -6.1980 C   0  0  0  0  0  0  0  0  0  0  0  0
    8.8311    7.3793   -6.2434 C   0  0  0  0  0  0  0  0  0  0  0  0
    9.4321    6.1723   -5.5482 C   0  0  0  0  0  0  0  0  0  0  0  0
   10.9671    6.1748   -5.5922 C   0  0  0  0  0  0  0  0  0  0  0  0
   11.5567    4.9482   -4.8810 C   0  0  0  0  0  0  0  0  0  0  0  0
   11.1572    3.6296   -5.4256 N   0  0  0  0  0  0  0  0  0  0  0  0
   11.8105    2.2867   -4.6746 S   0  0  0  0  0  0  0  0  0  0  0  0
   11.0600    0.7263   -5.7731 S   0  0  0  0  0  0  0  0  0  0  0  0
   11.7653    0.9200   -7.7014 S   0  0  0  0  0  0  0  0  0  0  0  0
   13.8373    0.8740   -7.6915 S   0  0  0  0  0  0  0  0  0  0  0  0
   14.4918    1.1440   -9.6687 S   0  0  0  0  0  0  0  0  0  0  0  0
   16.5961    1.1433   -9.6672 S   0  0  0  0  0  0  0  0  0  0  0  0
   17.2811    1.3872  -11.6451 S   0  0  0  0  0  0  0  0  0  0  0  0
   19.3907    1.3857  -11.6315 S   0  0  0  0  0  0  0  0  0  0  0  0
   20.0821    1.6301  -13.6090 S   0  0  0  0  0  0  0  0  0  0  0  0
   22.1916    1.6285  -13.5956 S   0  0  0  0  0  0  0  0  0  0  0  0
   22.8824    1.8729  -15.5738 S   0  0  0  0  0  0  0  0  0  0  0  0
   24.9919    1.8713  -15.5607 S   0  0  0  0  0  0  0  0  0  0  0  0
   25.6825    2.1158  -17.5389 S   0  0  0  0  0  0  0  0  0  0  0  0
   27.7919    2.1141  -17.5257 S   0  0  0  0  0  0  0  0  0  0  0  0
   28.4826    2.3586  -19.5038 S   0  0  0  0  0  0  0  0  0  0  0  0
   30.5919    2.3570  -19.4907 S   0  0  0  0  0  0  0  0  0  0  0  0
   31.2826    2.6014  -21.4688 S   0  0  0  0  0  0  0  0  0  0  0  0
   33.3919    2.5998  -21.4556 S   0  0  0  0  0  0  0  0  0  0  0  0
   34.0825    2.8442  -23.4338 S   0  0  0  0  0  0  0  0  0  0  0  0
   36.1919    2.8426  -23.4206 S   0  0  0  0  0  0  0  0  0  0  0  0
   36.8825    3.0871  -25.3987 S   0  0  0  0  0  0  0  0  0  0  0  0
   38.9919    3.0854  -25.3856 S   0  0  0  0  0  0  0  0  0  0  0  0
   39.6825    3.3299  -27.3637 S   0  0  0  0  0  0  0  0  0  0  0  0
   41.7919    3.3283  -27.3505 S   0  0  0  0  0  0  0  0  0  0  0  0
   42.4825    3.5727  -29.3286 S   0  0  0  0  0  0  0  0  0  0  0  0
   44.5919    3.5711  -29.3155 S   0  0  0  0  0  0  0  0  0  0  0  0
   45.2825    3.8155  -31.2936 S   0  0  0  0  0  0  0  0  0  0  0  0
   47.3919    3.8139  -31.2804 S   0  0  0  0  0  0  0  0  0  0  0  0
   48.0825    4.0584  -33.2585 S   0  0  0  0  0  0  0  0  0  0  0  0
   50.1919    4.0567  -33.2454 S   0  0  0  0  0  0  0  0  0  0  0  0
   50.8825    4.3012  -35.2235 S   0  0  0  0  0  0  0  0  0  0  0  0
   52.9919    4.2996  -35.2103 S   0  0  0  0  0  0  0  0  0  0  0  0
   53.6825    4.5440  -37.1884 S   0  0  0  0  0  0  0  0  0  0  0  0
   55.7919    4.5424  -37.1753 S   0  0  0  0  0  0  0  0  0  0  0  0
   56.4825    4.7869  -39.1534 S   0  0  0  0  0  0  0  0  0  0  0  0
   58.5919    4.7852  -39.1402 S   0  0  0  0  0  0  0  0  0  0  0  0
   59.2825    5.0297  -41.1183 S   0  0  0  0  0  0  0  0  0  0  0  0
   61.3918    5.0281  -41.1052 S   0  0  0  0  0  0  0  0  0  0  0  0
   62.0825    5.2725  -43.0833 S   0  0  0  0  0  0  0  0  0  0  0  0
   64.1918    5.2709  -43.0701 S   0  0  0  0  0  0  0  0  0  0  0  0
   64.8825    5.5153  -45.0483 S   0  0  0  0  0  0  0  0  0  0  0  0
   66.9918    5.5137  -45.0351 S   0  0  0  0  0  0  0  0  0  0  0  0
   67.6825    5.7582  -47.0132 S   0  0  0  0  0  0  0  0  0  0  0  0
   69.7918    5.7565  -47.0001 S   0  0  0  0  0  0  0  0  0  0  0  0
   70.4824    6.0010  -48.9782 S   0  0  0  0  0  0  0  0  0  0  0  0
   72.5918    5.9994  -48.9650 S   0  0  0  0  0  0  0  0  0  0  0  0
   73.2824    6.2438  -50.9431 S   0  0  0  0  0  0  0  0  0  0  0  0
   75.3918    6.2422  -50.9300 S   0  0  0  0  0  0  0  0  0  0  0  0
   76.0824    6.4866  -52.9081 S   0  0  0  0  0  0  0  0  0  0  0  0
   78.1918    6.4850  -52.8949 S   0  0  0  0  0  0  0  0  0  0  0  0
   78.8824    6.7295  -54.8730 S   0  0  0  0  0  0  0  0  0  0  0  0
   80.9918    6.7278  -54.8599 S   0  0  0  0  0  0  0  0  0  0  0  0
   81.6824    6.9723  -56.8380 S   0  0  0  0  0  0  0  0  0  0  0  0
   83.7918    6.9707  -56.8248 S   0  0  0  0  0  0  0  0  0  0  0  0
   84.4824    7.2151  -58.8029 S   0  0  0  0  0  0  0  0  0  0  0  0
   86.5918    7.2135  -58.7898 S   0  0  0  0  0  0  0  0  0  0  0  0
   87.2824    7.4579  -60.7679 S   0  0  0  0  0  0  0  0  0  0  0  0
   89.3918    7.4563  -60.7547 S   0  0  0  0  0  0  0  0  0  0  0  0
   90.0824    7.7008  -62.7328 S   0  0  0  0  0  0  0  0  0  0  0  0
   92.1917    7.6991  -62.7197 S   0  0  0  0  0  0  0  0  0  0  0  0
   92.8823    7.9436  -64.6978 S   0  0  0  0  0  0  0  0  0  0  0  0
   94.9916    7.9420  -64.6846 S   0  0  0  0  0  0  0  0  0  0  0  0
   95.6821    8.1864  -66.6625 S   0  0  0  0  0  0  0  0  0  0  0  0
   97.7910    8.1847  -66.6491 S   0  0  0  0  0  0  0  0  0  0  0  0
   98.4807    8.4291  -68.6267 S   0  0  0  0  0  0  0  0  0  0  0  0
  100.5882    8.4273  -68.6122 S   0  0  0  0  0  0  0  0  0  0  0  0
  101.2755    8.6716  -70.5879 S   0  0  0  0  0  0  0  0  0  0  0  0
  103.3784    8.6688  -70.5687 S   0  0  0  0  0  0  0  0  0  0  0  0
  104.0579    8.9125  -72.5388 S   0  0  0  0  0  0  0  0  0  0  0  0
  106.1462    8.9301  -72.5015 S   0  0  0  0  0  0  0  0  0  0  0  0
  106.8151    9.1076  -74.4608 S   0  0  0  0  0  0  0  0  0  0  0  0
  108.8883    9.1526  -74.4064 S   0  0  0  0  0  0  0  0  0  0  0  0
  109.4807    7.3149  -73.7018 S   0  0  0  0  0  0  0  0  0  0  0  0
    5.1710    9.2430   -7.2729 H   0  0  0  0  0  0  0  0  0  0  0  0
    6.9237    6.4627   -6.6941 H   0  0  0  0  0  0  0  0  0  0  0  0
    6.9601    7.3706   -5.1575 H   0  0  0  0  0  0  0  0  0  0  0  0
    9.1998    8.3094   -5.7837 H   0  0  0  0  0  0  0  0  0  0  0  0
    9.1630    7.4181   -7.2936 H   0  0  0  0  0  0  0  0  0  0  0  0
    9.0524    5.2539   -6.0207 H   0  0  0  0  0  0  0  0  0  0  0  0
    9.0981    6.1470   -4.4977 H   0  0  0  0  0  0  0  0  0  0  0  0
   11.3335    7.0871   -5.1197 H   0  0  0  0  0  0  0  0  0  0  0  0
   11.3012    6.2001   -6.6380 H   0  0  0  0  0  0  0  0  0  0  0  0
   11.2553    4.9975   -3.8238 H   0  0  0  0  0  0  0  0  0  0  0  0
   12.6438    5.0356   -4.9149 H   0  0  0  0  0  0  0  0  0  0  0  0
   11.3896    3.6201   -6.4203 H   0  0  0  0  0  0  0  0  0  0  0  0
  110.8221    7.4313  -73.7127 H   0  0  0  0  0  0  0  0  0  0  0  0
  1  2  1  0  0  0  0
  1 82  1  0  0  0  0
  2  3  1  0  0  0  0
  3  4  1  0  0  0  0
  3 83  1  0  0  0  0
  3 84  1  0  0  0  0
  4  5  1  0  0  0  0
  4 85  1  0  0  0  0
  4 86  1  0  0  0  0
  5  6  1  0  0  0  0
  5 87  1  0  0  0  0
  5 88  1  0  0  0  0
  6  7  1  0  0  0  0
  6 89  1  0  0  0  0
  6 90  1  0  0  0  0
  7  8  1  0  0  0  0
  7 91  1  0  0  0  0
  7 92  1  0  0  0  0
  8  9  1  0  0  0  0
  8 93  1  0  0  0  0
  9 10  1  0  0  0  0
 10 11  1  0  0  0  0
 11 12  1  0  0  0  0
 12 13  1  0  0  0  0
 13 14  1  0  0  0  0
 14 15  1  0  0  0  0
 15 16  1  0  0  0  0
 16 17  1  0  0  0  0
 17 18  1  0  0  0  0
 18 19  1  0  0  0  0
 19 20  1  0  0  0  0
 20 21  1  0  0  0  0
 21 22  1  0  0  0  0
 22 23  1  0  0  0  0
 23 24  1  0  0  0  0
 24 25  1  0  0  0  0
 25 26  1  0  0  0  0
 26 27  1  0  0  0  0
 27 28  1  0  0  0  0
 28 29  1  0  0  0  0
 29 30  1  0  0  0  0
 30 31  1  0  0  0  0
 31 32  1  0  0  0  0
 32 33  1  0  0  0  0
 33 34  1  0  0  0  0
 34 35  1  0  0  0  0
 35 36  1  0  0  0  0
 36 37  1  0  0  0  0
 37 38  1  0  0  0  0
 38 39  1  0  0  0  0
 39 40  1  0  0  0  0
 40 41  1  0  0  0  0
 41 42  1  0  0  0  0
 42 43  1  0  0  0  0
 43 44  1  0  0  0  0
 44 45  1  0  0  0  0
 45 46  1  0  0  0  0
 46 47  1  0  0  0  0
 47 48  1  0  0  0  0
 48 49  1  0  0  0  0
 49 50  1  0  0  0  0
 50 51  1  0  0  0  0
 51 52  1  0  0  0  0
 52 53  1  0  0  0  0
 53 54  1  0  0  0  0
 54 55  1  0  0  0  0
 55 56  1  0  0  0  0
 56 57  1  0  0  0  0
 57 58  1  0  0  0  0
 58 59  1  0  0  0  0
 59 60  1  0  0  0  0
 60 61  1  0  0  0  0
 61 62  1  0  0  0  0
 62 63  1  0  0  0  0
 63 64  1  0  0  0  0
 64 65  1  0  0  0  0
 65 66  1  0  0  0  0
 66 67  1  0  0  0  0
 67 68  1  0  0  0  0
 68 69  1  0  0  0  0
 69 70  1  0  0  0  0
 70 71  1  0  0  0  0
 71 72  1  0  0  0  0
 72 73  1  0  0  0  0
 73 74  1  0  0  0  0
 74 75  1  0  0  0  0
 75 76  1  0  0  0  0
 76 77  1  0  0  0  0
 77 78  1  0  0  0  0
 78 79  1  0  0  0  0
 79 80  1  0  0  0  0
 80 81  1  0  0  0  0
 81 94  1  0  0  0  0
M  END
$$$$
