
 OpenBabel04232216393D

232231  0  0  0  0  0  0  0  0999 V2000
    1.0530    0.1043    0.0605 C   0  0  0  0  0  0  0  0  0  0  0  0
    2.3885    0.1105    0.0460 C   0  0  0  0  0  0  0  0  0  0  0  0
    3.1467    1.1022   -0.7901 C   0  0  0  0  0  0  0  0  0  0  0  0
    3.0555   -0.8240    0.8242 O   0  0  0  0  0  0  0  0  0  0  0  0
    4.4811   -0.8060    0.7992 C   0  0  0  0  0  0  0  0  0  0  0  0
    4.9983   -1.9072    1.7183 C   0  0  0  0  0  0  0  0  0  0  0  0
    6.5209   -1.9316    1.7281 C   0  0  0  0  0  0  0  0  0  0  0  0
    7.0382   -3.0286    2.6462 C   0  0  0  0  0  0  0  0  0  0  0  0
    8.5584   -3.0419    2.6441 C   0  0  0  0  0  0  0  0  0  0  0  0
    9.0720   -4.1377    3.5612 C   0  0  0  0  0  0  0  0  0  0  0  0
   10.5897   -4.1501    3.5558 C   0  0  0  0  0  0  0  0  0  0  0  0
   11.1010   -5.2469    4.4711 C   0  0  0  0  0  0  0  0  0  0  0  0
   12.6176   -5.2598    4.4638 C   0  0  0  0  0  0  0  0  0  0  0  0
   13.1281   -6.3578    5.3771 C   0  0  0  0  0  0  0  0  0  0  0  0
   14.6448   -6.3696    5.3711 C   0  0  0  0  0  0  0  0  0  0  0  0
   15.1551   -7.4674    6.2846 C   0  0  0  0  0  0  0  0  0  0  0  0
   16.6713   -7.4778    6.2801 C   0  0  0  0  0  0  0  0  0  0  0  0
   17.1816   -8.5764    7.1916 C   0  0  0  0  0  0  0  0  0  0  0  0
   18.6979   -8.5859    7.1889 C   0  0  0  0  0  0  0  0  0  0  0  0
   19.2085   -9.6856    8.0993 C   0  0  0  0  0  0  0  0  0  0  0  0
   20.7245   -9.6939    8.0981 C   0  0  0  0  0  0  0  0  0  0  0  0
   21.2353  -10.7927    9.0094 C   0  0  0  0  0  0  0  0  0  0  0  0
   22.7513  -10.8020    9.0071 C   0  0  0  0  0  0  0  0  0  0  0  0
   23.2621  -11.9017    9.9168 C   0  0  0  0  0  0  0  0  0  0  0  0
   24.7780  -11.9101    9.9158 C   0  0  0  0  0  0  0  0  0  0  0  0
   25.2887  -13.0098   10.8256 C   0  0  0  0  0  0  0  0  0  0  0  0
   26.8047  -13.0168   10.8261 C   0  0  0  0  0  0  0  0  0  0  0  0
   27.3153  -14.1166   11.7360 C   0  0  0  0  0  0  0  0  0  0  0  0
   28.8313  -14.1235   11.7367 C   0  0  0  0  0  0  0  0  0  0  0  0
   29.3421  -15.2231   12.6465 C   0  0  0  0  0  0  0  0  0  0  0  0
   30.8580  -15.2290   12.6485 C   0  0  0  0  0  0  0  0  0  0  0  0
   31.3686  -16.3288   13.5584 C   0  0  0  0  0  0  0  0  0  0  0  0
   32.8846  -16.3344   13.5606 C   0  0  0  0  0  0  0  0  0  0  0  0
   33.3953  -17.4339   14.4707 C   0  0  0  0  0  0  0  0  0  0  0  0
   34.9112  -17.4385   14.4742 C   0  0  0  0  0  0  0  0  0  0  0  0
   35.4219  -18.5371   15.3855 C   0  0  0  0  0  0  0  0  0  0  0  0
   36.9380  -18.5423   15.3879 C   0  0  0  0  0  0  0  0  0  0  0  0
   37.4486  -19.6422   16.2978 C   0  0  0  0  0  0  0  0  0  0  0  0
   38.9646  -19.6468   16.3012 C   0  0  0  0  0  0  0  0  0  0  0  0
   39.4754  -20.7476   17.2097 C   0  0  0  0  0  0  0  0  0  0  0  0
   40.9912  -20.7521   17.2134 C   0  0  0  0  0  0  0  0  0  0  0  0
   41.5020  -21.8531   18.1215 C   0  0  0  0  0  0  0  0  0  0  0  0
   43.0179  -21.8576   18.1253 C   0  0  0  0  0  0  0  0  0  0  0  0
   43.5287  -22.9586   19.0335 C   0  0  0  0  0  0  0  0  0  0  0  0
   45.0446  -22.9630   19.0373 C   0  0  0  0  0  0  0  0  0  0  0  0
   45.5553  -24.0639   19.9456 C   0  0  0  0  0  0  0  0  0  0  0  0
   47.0712  -24.0685   19.9492 C   0  0  0  0  0  0  0  0  0  0  0  0
   47.5820  -25.1693   20.8577 C   0  0  0  0  0  0  0  0  0  0  0  0
   49.0979  -25.1751   20.8598 C   0  0  0  0  0  0  0  0  0  0  0  0
   49.6086  -26.2751   21.7694 C   0  0  0  0  0  0  0  0  0  0  0  0
   51.1246  -26.2816   21.7702 C   0  0  0  0  0  0  0  0  0  0  0  0
   51.6353  -27.3815   22.6802 C   0  0  0  0  0  0  0  0  0  0  0  0
   53.1512  -27.3874   22.6819 C   0  0  0  0  0  0  0  0  0  0  0  0
   53.6620  -28.4883   23.5903 C   0  0  0  0  0  0  0  0  0  0  0  0
   55.1779  -28.4952   23.5911 C   0  0  0  0  0  0  0  0  0  0  0  0
   55.6886  -29.5963   24.4992 C   0  0  0  0  0  0  0  0  0  0  0  0
   57.2045  -29.6022   24.5012 C   0  0  0  0  0  0  0  0  0  0  0  0
   57.7153  -30.7031   25.4096 C   0  0  0  0  0  0  0  0  0  0  0  0
   59.2312  -30.7088   25.4118 C   0  0  0  0  0  0  0  0  0  0  0  0
   59.7420  -31.8097   26.3201 C   0  0  0  0  0  0  0  0  0  0  0  0
   61.2578  -31.8155   26.3223 C   0  0  0  0  0  0  0  0  0  0  0  0
   61.7686  -32.9164   27.2305 C   0  0  0  0  0  0  0  0  0  0  0  0
   63.2845  -32.9222   27.2328 C   0  0  0  0  0  0  0  0  0  0  0  0
   63.7953  -34.0231   28.1411 C   0  0  0  0  0  0  0  0  0  0  0  0
   65.3114  -34.0289   28.1432 C   0  0  0  0  0  0  0  0  0  0  0  0
   65.8221  -35.1302   29.0516 C   0  0  0  0  0  0  0  0  0  0  0  0
   67.3385  -35.1367   29.0521 C   0  0  0  0  0  0  0  0  0  0  0  0
   67.8481  -36.2385   29.9608 C   0  0  0  0  0  0  0  0  0  0  0  0
   69.3649  -36.2446   29.9606 C   0  0  0  0  0  0  0  0  0  0  0  0
   69.8752  -37.3463   30.8695 C   0  0  0  0  0  0  0  0  0  0  0  0
   71.3919  -37.3529   30.8697 C   0  0  0  0  0  0  0  0  0  0  0  0
   71.9023  -38.4547   31.7787 C   0  0  0  0  0  0  0  0  0  0  0  0
   73.4194  -38.4626   31.7774 C   0  0  0  0  0  0  0  0  0  0  0  0
   73.9311  -39.5645   32.6864 C   0  0  0  0  0  0  0  0  0  0  0  0
   75.4495  -39.5727   32.6854 C   0  0  0  0  0  0  0  0  0  0  0  0
   75.9643  -40.6738   33.5963 C   0  0  0  0  0  0  0  0  0  0  0  0
   77.4852  -40.6876   33.6025 C   0  0  0  0  0  0  0  0  0  0  0  0
   77.9956  -41.7868   34.5120 C   0  0  0  0  0  0  0  0  0  0  0  0
    0.4723    0.8094   -0.5262 H   0  0  0  0  0  0  0  0  0  0  0  0
    0.5034   -0.6122    0.6646 H   0  0  0  0  0  0  0  0  0  0  0  0
    2.4690    1.7641   -1.3399 H   0  0  0  0  0  0  0  0  0  0  0  0
    3.7692    0.5934   -1.5328 H   0  0  0  0  0  0  0  0  0  0  0  0
    3.7787    1.7400   -0.1642 H   0  0  0  0  0  0  0  0  0  0  0  0
    4.8518    0.1615    1.1561 H   0  0  0  0  0  0  0  0  0  0  0  0
    4.8423   -0.9903   -0.2188 H   0  0  0  0  0  0  0  0  0  0  0  0
    4.6068   -2.8794    1.3921 H   0  0  0  0  0  0  0  0  0  0  0  0
    4.6162   -1.7537    2.7357 H   0  0  0  0  0  0  0  0  0  0  0  0
    6.9075   -0.9609    2.0628 H   0  0  0  0  0  0  0  0  0  0  0  0
    6.8980   -2.0965    0.7111 H   0  0  0  0  0  0  0  0  0  0  0  0
    6.6598   -4.0034    2.3152 H   0  0  0  0  0  0  0  0  0  0  0  0
    6.6716   -2.8665    3.6671 H   0  0  0  0  0  0  0  0  0  0  0  0
    8.9422   -2.0696    2.9769 H   0  0  0  0  0  0  0  0  0  0  0  0
    8.9303   -3.2063    1.6253 H   0  0  0  0  0  0  0  0  0  0  0  0
    8.6908   -5.1117    3.2305 H   0  0  0  0  0  0  0  0  0  0  0  0
    8.7049   -3.9741    4.5819 H   0  0  0  0  0  0  0  0  0  0  0  0
   10.9731   -3.1778    3.8888 H   0  0  0  0  0  0  0  0  0  0  0  0
   10.9589   -4.3135    2.5358 H   0  0  0  0  0  0  0  0  0  0  0  0
   10.7175   -6.2197    4.1393 H   0  0  0  0  0  0  0  0  0  0  0  0
   10.7340   -5.0833    5.4919 H   0  0  0  0  0  0  0  0  0  0  0  0
   13.0016   -4.2879    4.7969 H   0  0  0  0  0  0  0  0  0  0  0  0
   12.9852   -5.4225    3.4428 H   0  0  0  0  0  0  0  0  0  0  0  0
   12.7456   -7.3301    5.0430 H   0  0  0  0  0  0  0  0  0  0  0  0
   12.7598   -6.1962    6.3977 H   0  0  0  0  0  0  0  0  0  0  0  0
   15.0274   -5.3973    5.7053 H   0  0  0  0  0  0  0  0  0  0  0  0
   15.0133   -6.5312    4.3506 H   0  0  0  0  0  0  0  0  0  0  0  0
   14.7736   -8.4398    5.9496 H   0  0  0  0  0  0  0  0  0  0  0  0
   14.7855   -7.3065    7.3049 H   0  0  0  0  0  0  0  0  0  0  0  0
   17.0530   -6.5057    6.6165 H   0  0  0  0  0  0  0  0  0  0  0  0
   17.0412   -7.6370    5.2596 H   0  0  0  0  0  0  0  0  0  0  0  0
   16.8015   -9.5488    6.8548 H   0  0  0  0  0  0  0  0  0  0  0  0
   16.8110   -8.4182    8.2122 H   0  0  0  0  0  0  0  0  0  0  0  0
   19.0785   -7.6140    7.5276 H   0  0  0  0  0  0  0  0  0  0  0  0
   19.0692   -8.7428    6.1686 H   0  0  0  0  0  0  0  0  0  0  0  0
   18.8294  -10.6578    7.7599 H   0  0  0  0  0  0  0  0  0  0  0  0
   18.8365   -9.5297    9.1194 H   0  0  0  0  0  0  0  0  0  0  0  0
   21.1041   -8.7214    8.4360 H   0  0  0  0  0  0  0  0  0  0  0  0
   21.0969   -9.8514    7.0780 H   0  0  0  0  0  0  0  0  0  0  0  0
   20.8549  -11.7649    8.6725 H   0  0  0  0  0  0  0  0  0  0  0  0
   20.8643  -10.6342   10.0299 H   0  0  0  0  0  0  0  0  0  0  0  0
   23.1318   -9.8300    9.3453 H   0  0  0  0  0  0  0  0  0  0  0  0
   23.1225  -10.9588    7.9864 H   0  0  0  0  0  0  0  0  0  0  0  0
   22.8827  -12.8738    9.5776 H   0  0  0  0  0  0  0  0  0  0  0  0
   22.8898  -11.7457   10.9372 H   0  0  0  0  0  0  0  0  0  0  0  0
   25.1573  -10.9379   10.2551 H   0  0  0  0  0  0  0  0  0  0  0  0
   25.1503  -12.0660    8.8955 H   0  0  0  0  0  0  0  0  0  0  0  0
   24.9105  -13.9820   10.4857 H   0  0  0  0  0  0  0  0  0  0  0  0
   24.9153  -12.8545   11.8458 H   0  0  0  0  0  0  0  0  0  0  0  0
   27.1828  -12.0444   11.1664 H   0  0  0  0  0  0  0  0  0  0  0  0
   27.1781  -13.1719    9.8062 H   0  0  0  0  0  0  0  0  0  0  0  0
   26.9372  -15.0887   11.3961 H   0  0  0  0  0  0  0  0  0  0  0  0
   26.9419  -13.9612   12.7562 H   0  0  0  0  0  0  0  0  0  0  0  0
   29.2094  -13.1511   12.0768 H   0  0  0  0  0  0  0  0  0  0  0  0
   29.2048  -14.2786   10.7167 H   0  0  0  0  0  0  0  0  0  0  0  0
   28.9650  -16.1956   12.3057 H   0  0  0  0  0  0  0  0  0  0  0  0
   28.9674  -15.0687   13.6663 H   0  0  0  0  0  0  0  0  0  0  0  0
   31.2350  -14.2564   12.9896 H   0  0  0  0  0  0  0  0  0  0  0  0
   31.2326  -15.3833   11.6290 H   0  0  0  0  0  0  0  0  0  0  0  0
   30.9917  -17.3010   13.2176 H   0  0  0  0  0  0  0  0  0  0  0  0
   30.9940  -16.1742   14.5783 H   0  0  0  0  0  0  0  0  0  0  0  0
   33.2616  -15.3618   13.9016 H   0  0  0  0  0  0  0  0  0  0  0  0
   33.2593  -16.4887   12.5410 H   0  0  0  0  0  0  0  0  0  0  0  0
   33.0195  -18.4066   14.1288 H   0  0  0  0  0  0  0  0  0  0  0  0
   33.0195  -17.2804   15.4900 H   0  0  0  0  0  0  0  0  0  0  0  0
   35.2872  -16.4654   14.8146 H   0  0  0  0  0  0  0  0  0  0  0  0
   35.2870  -17.5935   13.4550 H   0  0  0  0  0  0  0  0  0  0  0  0
   35.0450  -19.5098   15.0461 H   0  0  0  0  0  0  0  0  0  0  0  0
   35.0474  -18.3810   16.4051 H   0  0  0  0  0  0  0  0  0  0  0  0
   37.3149  -17.5701   15.7287 H   0  0  0  0  0  0  0  0  0  0  0  0
   37.3126  -18.6970   14.3681 H   0  0  0  0  0  0  0  0  0  0  0  0
   37.0728  -20.6149   15.9558 H   0  0  0  0  0  0  0  0  0  0  0  0
   37.0729  -19.4887   17.3171 H   0  0  0  0  0  0  0  0  0  0  0  0
   39.3404  -18.6746   16.6444 H   0  0  0  0  0  0  0  0  0  0  0  0
   39.3404  -19.7989   15.2817 H   0  0  0  0  0  0  0  0  0  0  0  0
   39.0995  -21.7199   16.8665 H   0  0  0  0  0  0  0  0  0  0  0  0
   39.0995  -20.5956   18.2292 H   0  0  0  0  0  0  0  0  0  0  0  0
   41.3671  -19.7800   17.5564 H   0  0  0  0  0  0  0  0  0  0  0  0
   41.3671  -20.9043   16.1937 H   0  0  0  0  0  0  0  0  0  0  0  0
   41.1262  -22.8253   17.7784 H   0  0  0  0  0  0  0  0  0  0  0  0
   41.1262  -21.7010   19.1412 H   0  0  0  0  0  0  0  0  0  0  0  0
   43.3937  -20.8855   18.4684 H   0  0  0  0  0  0  0  0  0  0  0  0
   43.3938  -22.0098   17.1056 H   0  0  0  0  0  0  0  0  0  0  0  0
   43.1528  -23.9307   18.6904 H   0  0  0  0  0  0  0  0  0  0  0  0
   43.1528  -22.8064   20.0532 H   0  0  0  0  0  0  0  0  0  0  0  0
   45.4204  -21.9909   19.3804 H   0  0  0  0  0  0  0  0  0  0  0  0
   45.4204  -23.1152   18.0176 H   0  0  0  0  0  0  0  0  0  0  0  0
   45.1795  -25.0361   19.6024 H   0  0  0  0  0  0  0  0  0  0  0  0
   45.1795  -23.9119   20.9652 H   0  0  0  0  0  0  0  0  0  0  0  0
   47.4471  -23.0963   20.2924 H   0  0  0  0  0  0  0  0  0  0  0  0
   47.4471  -24.2206   18.9296 H   0  0  0  0  0  0  0  0  0  0  0  0
   47.2050  -26.1414   20.5153 H   0  0  0  0  0  0  0  0  0  0  0  0
   47.2073  -25.0165   21.8775 H   0  0  0  0  0  0  0  0  0  0  0  0
   49.4749  -24.2027   21.2006 H   0  0  0  0  0  0  0  0  0  0  0  0
   49.4725  -25.3296   19.8399 H   0  0  0  0  0  0  0  0  0  0  0  0
   49.2305  -27.2472   21.4294 H   0  0  0  0  0  0  0  0  0  0  0  0
   49.2351  -26.1197   22.7895 H   0  0  0  0  0  0  0  0  0  0  0  0
   51.5027  -25.3096   22.1102 H   0  0  0  0  0  0  0  0  0  0  0  0
   51.4981  -26.4371   20.7501 H   0  0  0  0  0  0  0  0  0  0  0  0
   51.2582  -28.3540   22.3390 H   0  0  0  0  0  0  0  0  0  0  0  0
   51.2607  -27.2272   23.6997 H   0  0  0  0  0  0  0  0  0  0  0  0
   53.5282  -26.4154   23.0243 H   0  0  0  0  0  0  0  0  0  0  0  0
   53.5259  -27.5403   21.6621 H   0  0  0  0  0  0  0  0  0  0  0  0
   53.2838  -29.4601   23.2489 H   0  0  0  0  0  0  0  0  0  0  0  0
   53.2884  -28.3345   24.6106 H   0  0  0  0  0  0  0  0  0  0  0  0
   55.5560  -27.5235   23.9324 H   0  0  0  0  0  0  0  0  0  0  0  0
   55.5514  -28.6491   22.5707 H   0  0  0  0  0  0  0  0  0  0  0  0
   55.3116  -30.5683   24.1570 H   0  0  0  0  0  0  0  0  0  0  0  0
   55.3140  -29.4434   25.5192 H   0  0  0  0  0  0  0  0  0  0  0  0
   57.5815  -28.6301   24.8437 H   0  0  0  0  0  0  0  0  0  0  0  0
   57.5792  -29.7550   23.4814 H   0  0  0  0  0  0  0  0  0  0  0  0
   57.3383  -31.6750   25.0674 H   0  0  0  0  0  0  0  0  0  0  0  0
   57.3406  -30.5501   26.4296 H   0  0  0  0  0  0  0  0  0  0  0  0
   59.6082  -29.7368   25.7541 H   0  0  0  0  0  0  0  0  0  0  0  0
   59.6059  -30.8617   24.3919 H   0  0  0  0  0  0  0  0  0  0  0  0
   59.3649  -32.7817   25.9778 H   0  0  0  0  0  0  0  0  0  0  0  0
   59.3673  -31.6568   27.3401 H   0  0  0  0  0  0  0  0  0  0  0  0
   61.6349  -30.8435   26.6645 H   0  0  0  0  0  0  0  0  0  0  0  0
   61.6325  -31.9684   25.3023 H   0  0  0  0  0  0  0  0  0  0  0  0
   61.3916  -33.8884   26.8882 H   0  0  0  0  0  0  0  0  0  0  0  0
   61.3939  -32.7635   28.2505 H   0  0  0  0  0  0  0  0  0  0  0  0
   63.6615  -31.9502   27.5750 H   0  0  0  0  0  0  0  0  0  0  0  0
   63.6592  -33.0751   26.2127 H   0  0  0  0  0  0  0  0  0  0  0  0
   63.4182  -34.9951   27.7987 H   0  0  0  0  0  0  0  0  0  0  0  0
   63.4206  -33.8702   29.1609 H   0  0  0  0  0  0  0  0  0  0  0  0
   65.6882  -33.0569   28.4854 H   0  0  0  0  0  0  0  0  0  0  0  0
   65.6858  -34.1819   27.1231 H   0  0  0  0  0  0  0  0  0  0  0  0
   65.4438  -36.1017   28.7100 H   0  0  0  0  0  0  0  0  0  0  0  0
   65.4484  -34.9761   30.0716 H   0  0  0  0  0  0  0  0  0  0  0  0
   67.7160  -34.1651   29.3934 H   0  0  0  0  0  0  0  0  0  0  0  0
   67.7113  -35.2907   28.0317 H   0  0  0  0  0  0  0  0  0  0  0  0
   67.4704  -37.2097   29.6188 H   0  0  0  0  0  0  0  0  0  0  0  0
   67.4751  -36.0841   30.9805 H   0  0  0  0  0  0  0  0  0  0  0  0
   69.7428  -35.2731   30.3023 H   0  0  0  0  0  0  0  0  0  0  0  0
   69.7381  -36.3987   28.9406 H   0  0  0  0  0  0  0  0  0  0  0  0
   69.4973  -38.3178   30.5278 H   0  0  0  0  0  0  0  0  0  0  0  0
   69.5020  -37.1922   31.8895 H   0  0  0  0  0  0  0  0  0  0  0  0
   71.7697  -36.3813   31.2113 H   0  0  0  0  0  0  0  0  0  0  0  0
   71.7649  -37.5069   29.8496 H   0  0  0  0  0  0  0  0  0  0  0  0
   71.5230  -39.4258   31.4377 H   0  0  0  0  0  0  0  0  0  0  0  0
   71.5300  -38.2996   32.7988 H   0  0  0  0  0  0  0  0  0  0  0  0
   73.7979  -37.4910   32.1180 H   0  0  0  0  0  0  0  0  0  0  0  0
   73.7908  -38.6172   30.7569 H   0  0  0  0  0  0  0  0  0  0  0  0
   73.5510  -40.5355   32.3454 H   0  0  0  0  0  0  0  0  0  0  0  0
   73.5580  -39.4094   33.7064 H   0  0  0  0  0  0  0  0  0  0  0  0
   75.8265  -38.6000   33.0241 H   0  0  0  0  0  0  0  0  0  0  0  0
   75.8194  -39.7281   31.6645 H   0  0  0  0  0  0  0  0  0  0  0  0
   75.5825  -41.6441   33.2554 H   0  0  0  0  0  0  0  0  0  0  0  0
   75.5872  -40.5173   34.6146 H   0  0  0  0  0  0  0  0  0  0  0  0
   77.8660  -39.7182   33.9448 H   0  0  0  0  0  0  0  0  0  0  0  0
   77.8613  -40.8456   32.5849 H   0  0  0  0  0  0  0  0  0  0  0  0
   77.6452  -41.6324   35.5375 H   0  0  0  0  0  0  0  0  0  0  0  0
   79.0884  -41.7972   34.5168 H   0  0  0  0  0  0  0  0  0  0  0  0
   77.6405  -42.7647   34.1716 H   0  0  0  0  0  0  0  0  0  0  0  0
  1  2  2  0  0  0  0
  1 79  1  0  0  0  0
  1 80  1  0  0  0  0
  2  3  1  0  0  0  0
  2  4  1  0  0  0  0
  3 81  1  0  0  0  0
  3 82  1  0  0  0  0
  3 83  1  0  0  0  0
  4  5  1  0  0  0  0
  5  6  1  0  0  0  0
  5 84  1  0  0  0  0
  5 85  1  0  0  0  0
  6  7  1  0  0  0  0
  6 86  1  0  0  0  0
  6 87  1  0  0  0  0
  7  8  1  0  0  0  0
  7 88  1  0  0  0  0
  7 89  1  0  0  0  0
  8  9  1  0  0  0  0
  8 90  1  0  0  0  0
  8 91  1  0  0  0  0
  9 10  1  0  0  0  0
  9 92  1  0  0  0  0
  9 93  1  0  0  0  0
 10 11  1  0  0  0  0
 10 94  1  0  0  0  0
 10 95  1  0  0  0  0
 11 12  1  0  0  0  0
 11 96  1  0  0  0  0
 11 97  1  0  0  0  0
 12 13  1  0  0  0  0
 12 98  1  0  0  0  0
 12 99  1  0  0  0  0
 13 14  1  0  0  0  0
 13100  1  0  0  0  0
 13101  1  0  0  0  0
 14 15  1  0  0  0  0
 14102  1  0  0  0  0
 14103  1  0  0  0  0
 15 16  1  0  0  0  0
 15104  1  0  0  0  0
 15105  1  0  0  0  0
 16 17  1  0  0  0  0
 16106  1  0  0  0  0
 16107  1  0  0  0  0
 17 18  1  0  0  0  0
 17108  1  0  0  0  0
 17109  1  0  0  0  0
 18 19  1  0  0  0  0
 18110  1  0  0  0  0
 18111  1  0  0  0  0
 19 20  1  0  0  0  0
 19112  1  0  0  0  0
 19113  1  0  0  0  0
 20 21  1  0  0  0  0
 20114  1  0  0  0  0
 20115  1  0  0  0  0
 21 22  1  0  0  0  0
 21116  1  0  0  0  0
 21117  1  0  0  0  0
 22 23  1  0  0  0  0
 22118  1  0  0  0  0
 22119  1  0  0  0  0
 23 24  1  0  0  0  0
 23120  1  0  0  0  0
 23121  1  0  0  0  0
 24 25  1  0  0  0  0
 24122  1  0  0  0  0
 24123  1  0  0  0  0
 25 26  1  0  0  0  0
 25124  1  0  0  0  0
 25125  1  0  0  0  0
 26 27  1  0  0  0  0
 26126  1  0  0  0  0
 26127  1  0  0  0  0
 27 28  1  0  0  0  0
 27128  1  0  0  0  0
 27129  1  0  0  0  0
 28 29  1  0  0  0  0
 28130  1  0  0  0  0
 28131  1  0  0  0  0
 29 30  1  0  0  0  0
 29132  1  0  0  0  0
 29133  1  0  0  0  0
 30 31  1  0  0  0  0
 30134  1  0  0  0  0
 30135  1  0  0  0  0
 31 32  1  0  0  0  0
 31136  1  0  0  0  0
 31137  1  0  0  0  0
 32 33  1  0  0  0  0
 32138  1  0  0  0  0
 32139  1  0  0  0  0
 33 34  1  0  0  0  0
 33140  1  0  0  0  0
 33141  1  0  0  0  0
 34 35  1  0  0  0  0
 34142  1  0  0  0  0
 34143  1  0  0  0  0
 35 36  1  0  0  0  0
 35144  1  0  0  0  0
 35145  1  0  0  0  0
 36 37  1  0  0  0  0
 36146  1  0  0  0  0
 36147  1  0  0  0  0
 37 38  1  0  0  0  0
 37148  1  0  0  0  0
 37149  1  0  0  0  0
 38 39  1  0  0  0  0
 38150  1  0  0  0  0
 38151  1  0  0  0  0
 39 40  1  0  0  0  0
 39152  1  0  0  0  0
 39153  1  0  0  0  0
 40 41  1  0  0  0  0
 40154  1  0  0  0  0
 40155  1  0  0  0  0
 41 42  1  0  0  0  0
 41156  1  0  0  0  0
 41157  1  0  0  0  0
 42 43  1  0  0  0  0
 42158  1  0  0  0  0
 42159  1  0  0  0  0
 43 44  1  0  0  0  0
 43160  1  0  0  0  0
 43161  1  0  0  0  0
 44 45  1  0  0  0  0
 44162  1  0  0  0  0
 44163  1  0  0  0  0
 45 46  1  0  0  0  0
 45164  1  0  0  0  0
 45165  1  0  0  0  0
 46 47  1  0  0  0  0
 46166  1  0  0  0  0
 46167  1  0  0  0  0
 47 48  1  0  0  0  0
 47168  1  0  0  0  0
 47169  1  0  0  0  0
 48 49  1  0  0  0  0
 48170  1  0  0  0  0
 48171  1  0  0  0  0
 49 50  1  0  0  0  0
 49172  1  0  0  0  0
 49173  1  0  0  0  0
 50 51  1  0  0  0  0
 50174  1  0  0  0  0
 50175  1  0  0  0  0
 51 52  1  0  0  0  0
 51176  1  0  0  0  0
 51177  1  0  0  0  0
 52 53  1  0  0  0  0
 52178  1  0  0  0  0
 52179  1  0  0  0  0
 53 54  1  0  0  0  0
 53180  1  0  0  0  0
 53181  1  0  0  0  0
 54 55  1  0  0  0  0
 54182  1  0  0  0  0
 54183  1  0  0  0  0
 55 56  1  0  0  0  0
 55184  1  0  0  0  0
 55185  1  0  0  0  0
 56 57  1  0  0  0  0
 56186  1  0  0  0  0
 56187  1  0  0  0  0
 57 58  1  0  0  0  0
 57188  1  0  0  0  0
 57189  1  0  0  0  0
 58 59  1  0  0  0  0
 58190  1  0  0  0  0
 58191  1  0  0  0  0
 59 60  1  0  0  0  0
 59192  1  0  0  0  0
 59193  1  0  0  0  0
 60 61  1  0  0  0  0
 60194  1  0  0  0  0
 60195  1  0  0  0  0
 61 62  1  0  0  0  0
 61196  1  0  0  0  0
 61197  1  0  0  0  0
 62 63  1  0  0  0  0
 62198  1  0  0  0  0
 62199  1  0  0  0  0
 63 64  1  0  0  0  0
 63200  1  0  0  0  0
 63201  1  0  0  0  0
 64 65  1  0  0  0  0
 64202  1  0  0  0  0
 64203  1  0  0  0  0
 65 66  1  0  0  0  0
 65204  1  0  0  0  0
 65205  1  0  0  0  0
 66 67  1  0  0  0  0
 66206  1  0  0  0  0
 66207  1  0  0  0  0
 67 68  1  0  0  0  0
 67208  1  0  0  0  0
 67209  1  0  0  0  0
 68 69  1  0  0  0  0
 68210  1  0  0  0  0
 68211  1  0  0  0  0
 69 70  1  0  0  0  0
 69212  1  0  0  0  0
 69213  1  0  0  0  0
 70 71  1  0  0  0  0
 70214  1  0  0  0  0
 70215  1  0  0  0  0
 71 72  1  0  0  0  0
 71216  1  0  0  0  0
 71217  1  0  0  0  0
 72 73  1  0  0  0  0
 72218  1  0  0  0  0
 72219  1  0  0  0  0
 73 74  1  0  0  0  0
 73220  1  0  0  0  0
 73221  1  0  0  0  0
 74 75  1  0  0  0  0
 74222  1  0  0  0  0
 74223  1  0  0  0  0
 75 76  1  0  0  0  0
 75224  1  0  0  0  0
 75225  1  0  0  0  0
 76 77  1  0  0  0  0
 76226  1  0  0  0  0
 76227  1  0  0  0  0
 77 78  1  0  0  0  0
 77228  1  0  0  0  0
 77229  1  0  0  0  0
 78230  1  0  0  0  0
 78231  1  0  0  0  0
 78232  1  0  0  0  0
M  END
$$$$
