
 OpenBabel04232216453D

 28 29  0  0  0  0  0  0  0  0999 V2000
    2.5804   -0.0885   -0.0963 C   0  0  0  0  0  0  0  0  0  0  0  0
    1.1114    0.0602    0.1413 C   0  0  0  0  0  0  0  0  0  0  0  0
    0.4729    1.3033    0.1449 C   0  0  0  0  0  0  0  0  0  0  0  0
   -0.9087    1.4039    0.3942 C   0  0  0  0  0  0  0  0  0  0  0  0
   -1.5154    2.7510    0.3731 C   0  0  0  0  0  0  0  0  0  0  0  0
   -0.8248    3.7418    0.1462 O   0  0  0  0  0  0  0  0  0  0  0  0
   -1.6077    0.2262    0.6471 C   0  0  0  0  0  0  0  0  0  0  0  0
   -3.0704    0.1461    1.0063 C   0  0  0  0  0  0  0  0  0  0  0  0
   -3.8247    1.1051    1.0583 O   0  0  0  0  0  0  0  0  0  0  0  0
   -3.5451   -1.2163    1.2978 C   0  0  0  0  0  0  0  0  0  0  0  0
   -4.5720   -1.7303    1.9614 C   0  0  0  0  0  0  0  0  0  0  0  0
   -5.6301   -1.1081    2.7745 C   0  0  0  0  0  0  0  0  0  0  0  0
   -6.9592   -1.4682    2.1604 C   0  0  0  0  0  0  0  0  0  0  0  0
   -7.7687   -2.2271    2.6891 O   0  0  0  0  0  0  0  0  0  0  0  0
   -3.2483   -2.1744    2.3330 C   0  0  0  0  0  0  0  0  0  0  0  0
   -0.9948   -0.9981    0.6169 N   0  0  0  0  0  0  0  0  0  0  0  0
    0.3273   -1.0559    0.3644 C   0  0  0  0  0  0  0  0  0  0  0  0
    3.0758    0.8836   -0.1788 H   0  0  0  0  0  0  0  0  0  0  0  0
    2.7597   -0.6452   -1.0217 H   0  0  0  0  0  0  0  0  0  0  0  0
    3.0415   -0.6278    0.7386 H   0  0  0  0  0  0  0  0  0  0  0  0
    1.0545    2.2058   -0.0424 H   0  0  0  0  0  0  0  0  0  0  0  0
   -2.5881    2.8667    0.5521 H   0  0  0  0  0  0  0  0  0  0  0  0
   -5.5540   -0.0197    2.8298 H   0  0  0  0  0  0  0  0  0  0  0  0
   -5.6027   -1.5074    3.7941 H   0  0  0  0  0  0  0  0  0  0  0  0
   -7.1807   -1.0025    1.1848 H   0  0  0  0  0  0  0  0  0  0  0  0
   -2.9107   -3.1397    1.9913 H   0  0  0  0  0  0  0  0  0  0  0  0
   -2.8239   -1.7804    3.2453 H   0  0  0  0  0  0  0  0  0  0  0  0
    0.7481   -2.0585    0.3569 H   0  0  0  0  0  0  0  0  0  0  0  0
  1  2  1  0  0  0  0
  1 18  1  0  0  0  0
  1 19  1  0  0  0  0
  1 20  1  0  0  0  0
  2  3  1  0  0  0  0
  2 17  2  0  0  0  0
  3  4  2  0  0  0  0
  3 21  1  0  0  0  0
  4  5  1  0  0  0  0
  4  7  1  0  0  0  0
  5  6  2  0  0  0  0
  5 22  1  0  0  0  0
  7  8  1  0  0  0  0
  7 16  2  0  0  0  0
  8  9  2  0  0  0  0
  8 10  1  0  0  0  0
 10 11  2  0  0  0  0
 10 15  1  0  0  0  0
 11 12  1  0  0  0  0
 11 15  1  0  0  0  0
 12 13  1  0  0  0  0
 12 23  1  0  0  0  0
 12 24  1  0  0  0  0
 13 14  2  0  0  0  0
 13 25  1  0  0  0  0
 15 26  1  0  0  0  0
 15 27  1  0  0  0  0
 16 17  1  0  0  0  0
 17 28  1  0  0  0  0
M  END
$$$$
