
 OpenBabel04232216523D

 50 49  0  0  0  0  0  0  0  0999 V2000
    0.9616   -0.0233   -0.1071 C   0  0  0  0  0  0  0  0  0  0  0  0
    2.4802   -0.0097   -0.0975 C   0  0  0  0  0  0  0  0  0  0  0  0
    3.0184    1.0564    0.8541 C   0  0  0  0  0  0  0  0  0  0  0  0
    4.5456    1.0688    0.8645 C   0  0  0  0  0  0  0  0  0  0  0  0
    5.0763    2.1351    1.8199 C   0  0  0  0  0  0  0  0  0  0  0  0
    6.6026    2.1515    1.8319 C   0  0  0  0  0  0  0  0  0  0  0  0
    7.1282    3.2183    2.7888 C   0  0  0  0  0  0  0  0  0  0  0  0
    8.6533    3.2346    2.8036 C   0  0  0  0  0  0  0  0  0  0  0  0
    9.1777    4.3007    3.7616 C   0  0  0  0  0  0  0  0  0  0  0  0
   10.7033    4.3162    3.7759 C   0  0  0  0  0  0  0  0  0  0  0  0
   11.2297    5.3807    4.7342 C   0  0  0  0  0  0  0  0  0  0  0  0
   12.7559    5.3942    4.7476 C   0  0  0  0  0  0  0  0  0  0  0  0
   13.2875    6.4582    5.7051 C   0  0  0  0  0  0  0  0  0  0  0  0
   14.8148    6.4690    5.7151 C   0  0  0  0  0  0  0  0  0  0  0  0
   15.3536    7.5311    6.6702 C   0  0  0  0  0  0  0  0  0  0  0  0
   16.8734    7.5427    6.6800 C   0  0  0  0  0  0  0  0  0  0  0  0
    0.5934   -0.7926   -0.7932 H   0  0  0  0  0  0  0  0  0  0  0  0
    0.5636    0.9429   -0.4333 H   0  0  0  0  0  0  0  0  0  0  0  0
    0.5659   -0.2388    0.8905 H   0  0  0  0  0  0  0  0  0  0  0  0
    2.8472    0.1784   -1.1136 H   0  0  0  0  0  0  0  0  0  0  0  0
    2.8492   -0.9977    0.2028 H   0  0  0  0  0  0  0  0  0  0  0  0
    2.6455    0.8673    1.8681 H   0  0  0  0  0  0  0  0  0  0  0  0
    2.6454    2.0426    0.5516 H   0  0  0  0  0  0  0  0  0  0  0  0
    4.9206    1.2617   -0.1480 H   0  0  0  0  0  0  0  0  0  0  0  0
    4.9214    0.0836    1.1668 H   0  0  0  0  0  0  0  0  0  0  0  0
    4.7026    1.9417    2.8330 H   0  0  0  0  0  0  0  0  0  0  0  0
    4.7000    3.1206    1.5191 H   0  0  0  0  0  0  0  0  0  0  0  0
    6.9781    2.3463    0.8200 H   0  0  0  0  0  0  0  0  0  0  0  0
    6.9803    1.1669    2.1336 H   0  0  0  0  0  0  0  0  0  0  0  0
    6.7515    3.0239    3.8005 H   0  0  0  0  0  0  0  0  0  0  0  0
    6.7510    4.2031    2.4869 H   0  0  0  0  0  0  0  0  0  0  0  0
    9.0307    3.4292    1.7916 H   0  0  0  0  0  0  0  0  0  0  0  0
    9.0302    2.2502    3.1048 H   0  0  0  0  0  0  0  0  0  0  0  0
    8.8009    4.1056    4.7729 H   0  0  0  0  0  0  0  0  0  0  0  0
    8.8014    5.2858    3.4600 H   0  0  0  0  0  0  0  0  0  0  0  0
   11.0798    4.5116    2.7643 H   0  0  0  0  0  0  0  0  0  0  0  0
   11.0792    3.3305    4.0765 H   0  0  0  0  0  0  0  0  0  0  0  0
   10.8531    5.1849    5.7462 H   0  0  0  0  0  0  0  0  0  0  0  0
   10.8535    6.3663    4.4345 H   0  0  0  0  0  0  0  0  0  0  0  0
   13.1305    5.5884    3.7351 H   0  0  0  0  0  0  0  0  0  0  0  0
   13.1301    4.4079    5.0473 H   0  0  0  0  0  0  0  0  0  0  0  0
   12.9125    6.2634    6.7172 H   0  0  0  0  0  0  0  0  0  0  0  0
   12.9128    7.4444    5.4050 H   0  0  0  0  0  0  0  0  0  0  0  0
   15.1872    6.6614    4.7014 H   0  0  0  0  0  0  0  0  0  0  0  0
   15.1871    5.4812    6.0136 H   0  0  0  0  0  0  0  0  0  0  0  0
   14.9870    7.3398    7.6855 H   0  0  0  0  0  0  0  0  0  0  0  0
   14.9865    8.5203    6.3730 H   0  0  0  0  0  0  0  0  0  0  0  0
   17.2694    6.5742    7.0015 H   0  0  0  0  0  0  0  0  0  0  0  0
   17.2421    8.3080    7.3691 H   0  0  0  0  0  0  0  0  0  0  0  0
   17.2688    7.7617    5.6830 H   0  0  0  0  0  0  0  0  0  0  0  0
  1  2  1  0  0  0  0
  1 17  1  0  0  0  0
  1 18  1  0  0  0  0
  1 19  1  0  0  0  0
  2  3  1  0  0  0  0
  2 20  1  0  0  0  0
  2 21  1  0  0  0  0
  3  4  1  0  0  0  0
  3 22  1  0  0  0  0
  3 23  1  0  0  0  0
  4  5  1  0  0  0  0
  4 24  1  0  0  0  0
  4 25  1  0  0  0  0
  5  6  1  0  0  0  0
  5 26  1  0  0  0  0
  5 27  1  0  0  0  0
  6  7  1  0  0  0  0
  6 28  1  0  0  0  0
  6 29  1  0  0  0  0
  7  8  1  0  0  0  0
  7 30  1  0  0  0  0
  7 31  1  0  0  0  0
  8  9  1  0  0  0  0
  8 32  1  0  0  0  0
  8 33  1  0  0  0  0
  9 10  1  0  0  0  0
  9 34  1  0  0  0  0
  9 35  1  0  0  0  0
 10 11  1  0  0  0  0
 10 36  1  0  0  0  0
 10 37  1  0  0  0  0
 11 12  1  0  0  0  0
 11 38  1  0  0  0  0
 11 39  1  0  0  0  0
 12 13  1  0  0  0  0
 12 40  1  0  0  0  0
 12 41  1  0  0  0  0
 13 14  1  0  0  0  0
 13 42  1  0  0  0  0
 13 43  1  0  0  0  0
 14 15  1  0  0  0  0
 14 44  1  0  0  0  0
 14 45  1  0  0  0  0
 15 16  1  0  0  0  0
 15 46  1  0  0  0  0
 15 47  1  0  0  0  0
 16 48  1  0  0  0  0
 16 49  1  0  0  0  0
 16 50  1  0  0  0  0
M  END
$$$$
