
 OpenBabel04232216473D

121121  0  0  1  0  0  0  0  0999 V2000
    5.8036   -7.7971   34.5680 C   0  0  0  0  0  0  0  0  0  0  0  0
    5.1711   -6.4750   34.3782 C   0  0  3  0  0  0  0  0  0  0  0  0
    3.8524   -6.2491   34.6632 C   0  0  0  0  0  0  0  0  0  0  0  0
    3.9332   -6.3346   33.3592 C   0  0  0  0  0  0  0  0  0  0  0  0
    4.5057   -6.4687   32.0003 C   0  0  0  0  0  0  0  0  0  0  0  0
    4.0707   -7.7464   31.2801 C   0  0  0  0  0  0  0  0  0  0  0  0
    4.6835   -7.9351   29.9966 O   0  0  0  0  0  0  0  0  0  0  0  0
    6.1164   -8.0106   29.9750 C   0  0  0  0  0  0  0  0  0  0  0  0
    6.6722   -9.1098   30.6915 O   0  0  0  0  0  0  0  0  0  0  0  0
    6.2759  -10.3391   30.0952 C   0  0  0  0  0  0  0  0  0  0  0  0
    6.9679  -10.6819   28.8842 O   0  0  0  0  0  0  0  0  0  0  0  0
    6.1912  -11.6601   28.1800 C   0  0  0  0  0  0  0  0  0  0  0  0
    6.6787  -11.9942   26.8926 O   0  0  0  0  0  0  0  0  0  0  0  0
    5.8831  -13.0300   26.2814 C   0  0  0  0  0  0  0  0  0  0  0  0
    4.4644  -12.8019   26.1824 O   0  0  0  0  0  0  0  0  0  0  0  0
    4.1354  -11.6663   25.3894 C   0  0  0  0  0  0  0  0  0  0  0  0
    2.7329  -11.3951   25.2980 O   0  0  0  0  0  0  0  0  0  0  0  0
    2.0650  -11.2607   26.5462 C   0  0  0  0  0  0  0  0  0  0  0  0
    2.3143  -10.0876   27.3089 O   0  0  0  0  0  0  0  0  0  0  0  0
    1.6946  -10.1921   28.6085 C   0  0  0  0  0  0  0  0  0  0  0  0
    1.8152  -11.4548   29.3082 O   0  0  0  0  0  0  0  0  0  0  0  0
    3.1571  -11.7046   29.7159 C   0  0  0  0  0  0  0  0  0  0  0  0
    3.4465  -12.8639   30.4932 O   0  0  0  0  0  0  0  0  0  0  0  0
    3.3365  -14.1231   29.8243 C   0  0  0  0  0  0  0  0  0  0  0  0
    3.9966  -14.2731   28.5856 O   0  0  0  0  0  0  0  0  0  0  0  0
    3.6631  -15.4944   27.9093 C   0  0  0  0  0  0  0  0  0  0  0  0
    2.2716  -15.6801   27.5904 O   0  0  0  0  0  0  0  0  0  0  0  0
    1.8071  -14.5421   26.8773 C   0  0  0  0  0  0  0  0  0  0  0  0
    0.3846  -14.4263   26.7345 O   0  0  0  0  0  0  0  0  0  0  0  0
   -0.2399  -14.0327   27.9606 C   0  0  0  0  0  0  0  0  0  0  0  0
   -0.1259  -15.0720   28.9185 O   0  0  0  0  0  0  0  0  0  0  0  0
   -0.5439  -14.6667   30.2080 C   0  0  0  0  0  0  0  0  0  0  0  0
   -0.2388  -15.6857   31.1382 O   0  0  0  0  0  0  0  0  0  0  0  0
    1.1683  -15.8452   31.2368 C   0  0  0  0  0  0  0  0  0  0  0  0
    1.5335  -16.9491   32.0102 O   0  0  0  0  0  0  0  0  0  0  0  0
    1.2328  -18.1171   31.2959 C   0  0  0  0  0  0  0  0  0  0  0  0
    1.6812  -19.1667   32.0814 O   0  0  0  0  0  0  0  0  0  0  0  0
    1.1840  -20.3428   31.5378 C   0  0  0  0  0  0  0  0  0  0  0  0
    1.6038  -21.3298   32.4132 O   0  0  0  0  0  0  0  0  0  0  0  0
    1.1556  -22.4922   31.7680 O   0  0  0  0  0  0  0  0  0  0  0  0
    1.3309  -23.5483   32.6596 O   0  0  0  0  0  0  0  0  0  0  0  0
    0.7896  -24.6906   32.0698 O   0  0  0  0  0  0  0  0  0  0  0  0
    1.4167  -25.7782   32.6765 O   0  0  0  0  0  0  0  0  0  0  0  0
    0.9467  -26.9371   32.0654 O   0  0  0  0  0  0  0  0  0  0  0  0
    0.9750  -27.9319   33.0432 O   0  0  0  0  0  0  0  0  0  0  0  0
    0.5278  -29.1055   32.4503 O   0  0  0  0  0  0  0  0  0  0  0  0
    1.2206  -30.1549   33.0542 O   0  0  0  0  0  0  0  0  0  0  0  0
    0.7096  -31.3189   32.5016 O   0  0  0  0  0  0  0  0  0  0  0  0
    0.6920  -32.2961   33.4946 O   0  0  0  0  0  0  0  0  0  0  0  0
    0.3857  -33.4678   32.8225 O   0  0  0  0  0  0  0  0  0  0  0  0
    1.0473  -34.5276   33.4314 O   0  0  0  0  0  0  0  0  0  0  0  0
    0.3455  -35.6388   32.9916 O   0  0  0  0  0  0  0  0  0  0  0  0
    0.4477  -36.6505   33.9322 O   0  0  0  0  0  0  0  0  0  0  0  0
    0.3032  -37.8035   33.1756 O   0  0  0  0  0  0  0  0  0  0  0  0
    0.8355  -38.8678   33.8770 O   0  0  0  0  0  0  0  0  0  0  0  0
    0.0563  -39.9461   33.4885 O   0  0  0  0  0  0  0  0  0  0  0  0
    0.3052  -40.9808   34.3648 O   0  0  0  0  0  0  0  0  0  0  0  0
    0.1192  -42.1296   33.6181 O   0  0  0  0  0  0  0  0  0  0  0  0
    0.5063  -43.1824   34.4166 O   0  0  0  0  0  0  0  0  0  0  0  0
   -0.1319  -44.2893   33.8974 O   0  0  0  0  0  0  0  0  0  0  0  0
    0.2089  -45.3421   34.7158 O   0  0  0  0  0  0  0  0  0  0  0  0
   -0.1438  -46.4772   34.0193 O   0  0  0  0  0  0  0  0  0  0  0  0
    0.1918  -47.5341   34.8341 O   0  0  0  0  0  0  0  0  0  0  0  0
   -0.3624  -48.6489   34.2442 O   0  0  0  0  0  0  0  0  0  0  0  0
    0.0137  -49.7079   35.0465 O   0  0  0  0  0  0  0  0  0  0  0  0
   -0.4310  -50.8468   34.4135 O   0  0  0  0  0  0  0  0  0  0  0  0
   -0.0877  -51.8917   35.2358 O   0  0  0  0  0  0  0  0  0  0  0  0
   -0.5639  -53.0492   34.6471 O   0  0  0  0  0  0  0  0  0  0  0  0
   -0.1712  -54.1087   35.4920 O   0  0  0  0  0  0  0  0  0  0  0  0
   -0.6616  -55.2832   34.8695 O   0  0  0  0  0  0  0  0  0  0  0  0
   -0.3018  -56.3375   35.6988 O   0  0  0  0  0  0  0  0  0  0  0  0
   -0.7780  -57.5068   35.0852 O   0  0  0  0  0  0  0  0  0  0  0  0
   -0.4236  -58.5760   35.8920 O   0  0  0  0  0  0  0  0  0  0  0  0
   -0.8906  -59.7533   35.3050 O   0  0  0  0  0  0  0  0  0  0  0  0
   -0.5299  -60.8446   36.1281 O   0  0  0  0  0  0  0  0  0  0  0  0
   -1.0038  -62.0399   35.5317 O   0  0  0  0  0  0  0  0  0  0  0  0
   -0.6375  -63.1311   36.3645 O   0  0  0  0  0  0  0  0  0  0  0  0
   -1.1051  -64.3450   35.7825 O   0  0  0  0  0  0  0  0  0  0  0  0
   -0.7353  -65.4487   36.6236 O   0  0  0  0  0  0  0  0  0  0  0  0
    6.3973   -7.8034   35.4799 H   0  0  0  0  0  0  0  0  0  0  0  0
    6.4532   -8.0085   33.7257 H   0  0  0  0  0  0  0  0  0  0  0  0
    5.0528   -8.5915   34.6355 H   0  0  0  0  0  0  0  0  0  0  0  0
    5.8588   -5.6299   34.3049 H   0  0  0  0  0  0  0  0  0  0  0  0
    3.1341   -6.0921   35.4528 H   0  0  0  0  0  0  0  0  0  0  0  0
    5.6011   -6.4124   32.0370 H   0  0  0  0  0  0  0  0  0  0  0  0
    4.2072   -5.6045   31.4005 H   0  0  0  0  0  0  0  0  0  0  0  0
    2.9897   -7.6874   31.0925 H   0  0  0  0  0  0  0  0  0  0  0  0
    4.2293   -8.6441   31.8891 H   0  0  0  0  0  0  0  0  0  0  0  0
    6.5568   -7.0895   30.3605 H   0  0  0  0  0  0  0  0  0  0  0  0
    6.4232   -8.0805   28.9263 H   0  0  0  0  0  0  0  0  0  0  0  0
    5.2145  -10.2658   29.8916 H   0  0  0  0  0  0  0  0  0  0  0  0
    6.4189  -11.1439   30.8256 H   0  0  0  0  0  0  0  0  0  0  0  0
    5.2351  -11.1906   27.9862 H   0  0  0  0  0  0  0  0  0  0  0  0
    6.1022  -12.5617   28.7989 H   0  0  0  0  0  0  0  0  0  0  0  0
    6.0370  -13.9539   26.8530 H   0  0  0  0  0  0  0  0  0  0  0  0
    6.2845  -13.2217   25.2807 H   0  0  0  0  0  0  0  0  0  0  0  0
    4.4818  -11.8548   24.3686 H   0  0  0  0  0  0  0  0  0  0  0  0
    4.6265  -10.7738   25.7789 H   0  0  0  0  0  0  0  0  0  0  0  0
    2.4155  -12.0631   27.1546 H   0  0  0  0  0  0  0  0  0  0  0  0
    0.9883  -11.3785   26.3783 H   0  0  0  0  0  0  0  0  0  0  0  0
    0.6235  -10.0033   28.4830 H   0  0  0  0  0  0  0  0  0  0  0  0
    2.0967   -9.3852   29.2298 H   0  0  0  0  0  0  0  0  0  0  0  0
    3.4492  -10.8595   30.3376 H   0  0  0  0  0  0  0  0  0  0  0  0
    3.7456  -11.7574   28.8193 H   0  0  0  0  0  0  0  0  0  0  0  0
    2.2751  -14.2372   29.6608 H   0  0  0  0  0  0  0  0  0  0  0  0
    3.7234  -14.8793   30.5130 H   0  0  0  0  0  0  0  0  0  0  0  0
    3.9844  -16.3450   28.5111 H   0  0  0  0  0  0  0  0  0  0  0  0
    4.2297  -15.5282   26.9678 H   0  0  0  0  0  0  0  0  0  0  0  0
    2.2557  -14.4968   25.8812 H   0  0  0  0  0  0  0  0  0  0  0  0
    2.1194  -13.7016   27.4613 H   0  0  0  0  0  0  0  0  0  0  0  0
   -1.2993  -13.8429   27.7637 H   0  0  0  0  0  0  0  0  0  0  0  0
    0.2000  -13.0981   28.3285 H   0  0  0  0  0  0  0  0  0  0  0  0
   -1.6286  -14.5493   30.2057 H   0  0  0  0  0  0  0  0  0  0  0  0
   -0.0699  -13.7313   30.5258 H   0  0  0  0  0  0  0  0  0  0  0  0
    1.6068  -14.9683   31.7061 H   0  0  0  0  0  0  0  0  0  0  0  0
    1.6117  -16.0027   30.2424 H   0  0  0  0  0  0  0  0  0  0  0  0
    1.7374  -18.1563   30.3213 H   0  0  0  0  0  0  0  0  0  0  0  0
    0.1463  -18.1789   31.1460 H   0  0  0  0  0  0  0  0  0  0  0  0
    1.6028  -20.5274   30.5398 H   0  0  0  0  0  0  0  0  0  0  0  0
    0.0848  -20.3438   31.4844 H   0  0  0  0  0  0  0  0  0  0  0  0
   -1.1376  -66.1202   36.0540 H   0  0  0  0  0  0  0  0  0  0  0  0
  1  2  1  0  0  0  0
  1 80  1  0  0  0  0
  1 81  1  0  0  0  0
  1 82  1  0  0  0  0
  2  3  1  0  0  0  0
  2  4  1  0  0  0  0
  2 83  1  0  0  0  0
  3  4  2  0  0  0  0
  3 84  1  0  0  0  0
  4  5  1  0  0  0  0
  5  6  1  0  0  0  0
  5 85  1  0  0  0  0
  5 86  1  0  0  0  0
  6  7  1  0  0  0  0
  6 87  1  0  0  0  0
  6 88  1  0  0  0  0
  7  8  1  0  0  0  0
  8  9  1  0  0  0  0
  8 89  1  0  0  0  0
  8 90  1  0  0  0  0
  9 10  1  0  0  0  0
 10 11  1  0  0  0  0
 10 91  1  0  0  0  0
 10 92  1  0  0  0  0
 11 12  1  0  0  0  0
 12 13  1  0  0  0  0
 12 93  1  0  0  0  0
 12 94  1  0  0  0  0
 13 14  1  0  0  0  0
 14 15  1  0  0  0  0
 14 95  1  0  0  0  0
 14 96  1  0  0  0  0
 15 16  1  0  0  0  0
 16 17  1  0  0  0  0
 16 97  1  0  0  0  0
 16 98  1  0  0  0  0
 17 18  1  0  0  0  0
 18 19  1  0  0  0  0
 18 99  1  0  0  0  0
 18100  1  0  0  0  0
 19 20  1  0  0  0  0
 20 21  1  0  0  0  0
 20101  1  0  0  0  0
 20102  1  0  0  0  0
 21 22  1  0  0  0  0
 22 23  1  0  0  0  0
 22103  1  0  0  0  0
 22104  1  0  0  0  0
 23 24  1  0  0  0  0
 24 25  1  0  0  0  0
 24105  1  0  0  0  0
 24106  1  0  0  0  0
 25 26  1  0  0  0  0
 26 27  1  0  0  0  0
 26107  1  0  0  0  0
 26108  1  0  0  0  0
 27 28  1  0  0  0  0
 28 29  1  0  0  0  0
 28109  1  0  0  0  0
 28110  1  0  0  0  0
 29 30  1  0  0  0  0
 30 31  1  0  0  0  0
 30111  1  0  0  0  0
 30112  1  0  0  0  0
 31 32  1  0  0  0  0
 32 33  1  0  0  0  0
 32113  1  0  0  0  0
 32114  1  0  0  0  0
 33 34  1  0  0  0  0
 34 35  1  0  0  0  0
 34115  1  0  0  0  0
 34116  1  0  0  0  0
 35 36  1  0  0  0  0
 36 37  1  0  0  0  0
 36117  1  0  0  0  0
 36118  1  0  0  0  0
 37 38  1  0  0  0  0
 38 39  1  0  0  0  0
 38119  1  0  0  0  0
 38120  1  0  0  0  0
 39 40  1  0  0  0  0
 40 41  1  0  0  0  0
 41 42  1  0  0  0  0
 42 43  1  0  0  0  0
 43 44  1  0  0  0  0
 44 45  1  0  0  0  0
 45 46  1  0  0  0  0
 46 47  1  0  0  0  0
 47 48  1  0  0  0  0
 48 49  1  0  0  0  0
 49 50  1  0  0  0  0
 50 51  1  0  0  0  0
 51 52  1  0  0  0  0
 52 53  1  0  0  0  0
 53 54  1  0  0  0  0
 54 55  1  0  0  0  0
 55 56  1  0  0  0  0
 56 57  1  0  0  0  0
 57 58  1  0  0  0  0
 58 59  1  0  0  0  0
 59 60  1  0  0  0  0
 60 61  1  0  0  0  0
 61 62  1  0  0  0  0
 62 63  1  0  0  0  0
 63 64  1  0  0  0  0
 64 65  1  0  0  0  0
 65 66  1  0  0  0  0
 66 67  1  0  0  0  0
 67 68  1  0  0  0  0
 68 69  1  0  0  0  0
 69 70  1  0  0  0  0
 70 71  1  0  0  0  0
 71 72  1  0  0  0  0
 72 73  1  0  0  0  0
 73 74  1  0  0  0  0
 74 75  1  0  0  0  0
 75 76  1  0  0  0  0
 76 77  1  0  0  0  0
 77 78  1  0  0  0  0
 78 79  1  0  0  0  0
 79121  1  0  0  0  0
M  END
$$$$
