
 OpenBabel04232216423D

 21 21  0  0  0  0  0  0  0  0999 V2000
   -1.6938    0.2367    0.3762 C   0  0  0  0  0  0  0  0  0  0  0  0
   -1.0720    1.2560   -0.4415 C   0  0  0  0  0  0  0  0  0  0  0  0
    0.2307    1.5758   -0.4039 C   0  0  0  0  0  0  0  0  0  0  0  0
    1.2017    0.9621    0.4892 C   0  0  0  0  0  0  0  0  0  0  0  0
    1.8476    1.9002    1.4834 C   0  0  0  0  0  0  0  0  0  0  0  0
    0.8457    2.4808    2.4778 C   0  0  0  0  0  0  0  0  0  0  0  0
    1.5155   -0.3476    0.4504 C   0  0  0  0  0  0  0  0  0  0  0  0
    1.0448   -1.2875   -0.4269 N   0  0  0  0  0  0  0  0  0  0  0  0
   -0.2158   -1.5832   -0.4090 C   0  0  0  0  0  0  0  0  0  0  0  0
   -1.3179   -1.0489    0.4315 C   0  0  0  0  0  0  0  0  0  0  0  0
   -2.5463    0.5644    0.9664 H   0  0  0  0  0  0  0  0  0  0  0  0
   -1.7390    1.8216   -1.0879 H   0  0  0  0  0  0  0  0  0  0  0  0
    0.5999    2.3888   -1.0245 H   0  0  0  0  0  0  0  0  0  0  0  0
    2.3497    2.7155    0.9486 H   0  0  0  0  0  0  0  0  0  0  0  0
    2.6286    1.3787    2.0510 H   0  0  0  0  0  0  0  0  0  0  0  0
    0.0771    3.0782    1.9753 H   0  0  0  0  0  0  0  0  0  0  0  0
    1.3570    3.1347    3.1907 H   0  0  0  0  0  0  0  0  0  0  0  0
    0.3447    1.6873    3.0427 H   0  0  0  0  0  0  0  0  0  0  0  0
    2.2718   -0.7298    1.1330 H   0  0  0  0  0  0  0  0  0  0  0  0
   -0.5434   -2.3815   -1.0966 H   0  0  0  0  0  0  0  0  0  0  0  0
   -1.8473   -1.7713    1.0402 H   0  0  0  0  0  0  0  0  0  0  0  0
  1  2  1  0  0  0  0
  1 10  2  0  0  0  0
  1 11  1  0  0  0  0
  2  3  2  0  0  0  0
  2 12  1  0  0  0  0
  3  4  1  0  0  0  0
  3 13  1  0  0  0  0
  4  5  1  0  0  0  0
  4  7  2  0  0  0  0
  5  6  1  0  0  0  0
  5 14  1  0  0  0  0
  5 15  1  0  0  0  0
  6 16  1  0  0  0  0
  6 17  1  0  0  0  0
  6 18  1  0  0  0  0
  7  8  1  0  0  0  0
  7 19  1  0  0  0  0
  8  9  2  0  0  0  0
  9 10  1  0  0  0  0
  9 20  1  0  0  0  0
 10 21  1  0  0  0  0
M  END
$$$$
