
 OpenBabel04232217023D

 94 93  0  0  0  0  0  0  0  0999 V2000
   10.5726    5.2149    6.1737 S   0  0  0  0  0  0  0  0  0  0  0  0
    9.8199    3.5671    6.0024 C   0  0  0  0  0  0  0  0  0  0  0  0
   10.3617    2.6403    7.0874 C   0  0  0  0  0  0  0  0  0  0  0  0
    9.7615    1.2353    6.9943 C   0  0  0  0  0  0  0  0  0  0  0  0
   10.3145    0.2896    8.0490 C   0  0  0  0  0  0  0  0  0  0  0  0
    9.7115   -1.1286    7.9743 C   0  0  0  0  0  0  0  0  0  0  0  0
    9.9077   -1.8434    6.6925 N   0  0  0  0  0  0  0  0  0  0  0  0
    9.2907   -3.3853    6.6030 S   0  0  0  0  0  0  0  0  0  0  0  0
    9.8957   -4.0107    4.7452 S   0  0  0  0  0  0  0  0  0  0  0  0
   11.9604   -4.0605    4.7375 S   0  0  0  0  0  0  0  0  0  0  0  0
   12.6234   -5.3728    6.1936 S   0  0  0  0  0  0  0  0  0  0  0  0
   14.7194   -5.3142    6.1729 S   0  0  0  0  0  0  0  0  0  0  0  0
   15.4190   -6.5966    7.6822 S   0  0  0  0  0  0  0  0  0  0  0  0
   17.5246   -6.5823    7.6641 S   0  0  0  0  0  0  0  0  0  0  0  0
   18.2150   -7.8716    9.1828 S   0  0  0  0  0  0  0  0  0  0  0  0
   20.3232   -7.8633    9.1730 S   0  0  0  0  0  0  0  0  0  0  0  0
   21.0129   -9.1536   10.6924 S   0  0  0  0  0  0  0  0  0  0  0  0
   23.1222   -9.1452   10.6826 S   0  0  0  0  0  0  0  0  0  0  0  0
   23.8129  -10.4353   12.2018 S   0  0  0  0  0  0  0  0  0  0  0  0
   25.9223  -10.4267   12.1917 S   0  0  0  0  0  0  0  0  0  0  0  0
   26.6130  -11.7169   13.7110 S   0  0  0  0  0  0  0  0  0  0  0  0
   28.7224  -11.7083   13.7009 S   0  0  0  0  0  0  0  0  0  0  0  0
   29.4130  -12.9985   15.2202 S   0  0  0  0  0  0  0  0  0  0  0  0
   31.5224  -12.9899   15.2101 S   0  0  0  0  0  0  0  0  0  0  0  0
   32.2130  -14.2801   16.7294 S   0  0  0  0  0  0  0  0  0  0  0  0
   34.3224  -14.2715   16.7193 S   0  0  0  0  0  0  0  0  0  0  0  0
   35.0130  -15.5616   18.2385 S   0  0  0  0  0  0  0  0  0  0  0  0
   37.1224  -15.5531   18.2284 S   0  0  0  0  0  0  0  0  0  0  0  0
   37.8130  -16.8432   19.7477 S   0  0  0  0  0  0  0  0  0  0  0  0
   39.9223  -16.8346   19.7376 S   0  0  0  0  0  0  0  0  0  0  0  0
   40.6130  -18.1248   21.2569 S   0  0  0  0  0  0  0  0  0  0  0  0
   42.7223  -18.1162   21.2468 S   0  0  0  0  0  0  0  0  0  0  0  0
   43.4130  -19.4063   22.7660 S   0  0  0  0  0  0  0  0  0  0  0  0
   45.5223  -19.3978   22.7559 S   0  0  0  0  0  0  0  0  0  0  0  0
   46.2130  -20.6879   24.2752 S   0  0  0  0  0  0  0  0  0  0  0  0
   48.3223  -20.6793   24.2651 S   0  0  0  0  0  0  0  0  0  0  0  0
   49.0129  -21.9695   25.7844 S   0  0  0  0  0  0  0  0  0  0  0  0
   51.1223  -21.9609   25.7743 S   0  0  0  0  0  0  0  0  0  0  0  0
   51.8129  -23.2511   27.2935 S   0  0  0  0  0  0  0  0  0  0  0  0
   53.9223  -23.2425   27.2834 S   0  0  0  0  0  0  0  0  0  0  0  0
   54.6129  -24.5326   28.8027 S   0  0  0  0  0  0  0  0  0  0  0  0
   56.7223  -24.5240   28.7926 S   0  0  0  0  0  0  0  0  0  0  0  0
   57.4129  -25.8142   30.3119 S   0  0  0  0  0  0  0  0  0  0  0  0
   59.5223  -25.8056   30.3018 S   0  0  0  0  0  0  0  0  0  0  0  0
   60.2129  -27.0958   31.8210 S   0  0  0  0  0  0  0  0  0  0  0  0
   62.3223  -27.0872   31.8109 S   0  0  0  0  0  0  0  0  0  0  0  0
   63.0129  -28.3773   33.3302 S   0  0  0  0  0  0  0  0  0  0  0  0
   65.1223  -28.3688   33.3201 S   0  0  0  0  0  0  0  0  0  0  0  0
   65.8129  -29.6589   34.8394 S   0  0  0  0  0  0  0  0  0  0  0  0
   67.9223  -29.6503   34.8293 S   0  0  0  0  0  0  0  0  0  0  0  0
   68.6129  -30.9405   36.3486 S   0  0  0  0  0  0  0  0  0  0  0  0
   70.7223  -30.9319   36.3385 S   0  0  0  0  0  0  0  0  0  0  0  0
   71.4129  -32.2220   37.8577 S   0  0  0  0  0  0  0  0  0  0  0  0
   73.5223  -32.2135   37.8476 S   0  0  0  0  0  0  0  0  0  0  0  0
   74.2129  -33.5036   39.3669 S   0  0  0  0  0  0  0  0  0  0  0  0
   76.3222  -33.4950   39.3568 S   0  0  0  0  0  0  0  0  0  0  0  0
   77.0129  -34.7852   40.8761 S   0  0  0  0  0  0  0  0  0  0  0  0
   79.1222  -34.7766   40.8660 S   0  0  0  0  0  0  0  0  0  0  0  0
   79.8129  -36.0667   42.3852 S   0  0  0  0  0  0  0  0  0  0  0  0
   81.9222  -36.0582   42.3751 S   0  0  0  0  0  0  0  0  0  0  0  0
   82.6129  -37.3483   43.8944 S   0  0  0  0  0  0  0  0  0  0  0  0
   84.7222  -37.3397   43.8843 S   0  0  0  0  0  0  0  0  0  0  0  0
   85.4128  -38.6299   45.4036 S   0  0  0  0  0  0  0  0  0  0  0  0
   87.5222  -38.6213   45.3935 S   0  0  0  0  0  0  0  0  0  0  0  0
   88.2128  -39.9115   46.9127 S   0  0  0  0  0  0  0  0  0  0  0  0
   90.3222  -39.9029   46.9026 S   0  0  0  0  0  0  0  0  0  0  0  0
   91.0128  -41.1930   48.4219 S   0  0  0  0  0  0  0  0  0  0  0  0
   93.1221  -41.1844   48.4118 S   0  0  0  0  0  0  0  0  0  0  0  0
   93.8126  -42.4745   49.9310 S   0  0  0  0  0  0  0  0  0  0  0  0
   95.9218  -42.4658   49.9207 S   0  0  0  0  0  0  0  0  0  0  0  0
   96.6118  -43.7557   51.4397 S   0  0  0  0  0  0  0  0  0  0  0  0
   98.7202  -43.7467   51.4291 S   0  0  0  0  0  0  0  0  0  0  0  0
   99.4088  -45.0361   52.9474 S   0  0  0  0  0  0  0  0  0  0  0  0
  101.5149  -45.0258   52.9353 S   0  0  0  0  0  0  0  0  0  0  0  0
  102.2000  -46.3132   54.4516 S   0  0  0  0  0  0  0  0  0  0  0  0
  104.2999  -46.2995   54.4345 S   0  0  0  0  0  0  0  0  0  0  0  0
  104.9740  -47.5828   55.9465 S   0  0  0  0  0  0  0  0  0  0  0  0
  107.0584  -47.5367   55.9338 S   0  0  0  0  0  0  0  0  0  0  0  0
  107.7228  -48.8675   57.3826 S   0  0  0  0  0  0  0  0  0  0  0  0
  109.7912  -48.7831   57.3820 S   0  0  0  0  0  0  0  0  0  0  0  0
  110.3812  -49.5220   55.5541 S   0  0  0  0  0  0  0  0  0  0  0  0
    9.9475    5.7974    5.1410 H   0  0  0  0  0  0  0  0  0  0  0  0
   10.0500    3.1775    5.0043 H   0  0  0  0  0  0  0  0  0  0  0  0
    8.7318    3.6689    6.0825 H   0  0  0  0  0  0  0  0  0  0  0  0
   10.1359    3.0550    8.0815 H   0  0  0  0  0  0  0  0  0  0  0  0
   11.4541    2.5675    7.0071 H   0  0  0  0  0  0  0  0  0  0  0  0
    9.9833    0.8233    5.9972 H   0  0  0  0  0  0  0  0  0  0  0  0
    8.6701    1.2971    7.0776 H   0  0  0  0  0  0  0  0  0  0  0  0
   10.0924    0.7121    9.0563 H   0  0  0  0  0  0  0  0  0  0  0  0
   11.3974    0.2283    7.9896 H   0  0  0  0  0  0  0  0  0  0  0  0
    8.6092   -1.0238    8.1324 H   0  0  0  0  0  0  0  0  0  0  0  0
   10.0963   -1.7102    8.7895 H   0  0  0  0  0  0  0  0  0  0  0  0
   10.9387   -1.8692    6.5038 H   0  0  0  0  0  0  0  0  0  0  0  0
  111.7209  -49.4416   55.6545 H   0  0  0  0  0  0  0  0  0  0  0  0
  1  2  1  0  0  0  0
  1 82  1  0  0  0  0
  2  3  1  0  0  0  0
  2 83  1  0  0  0  0
  2 84  1  0  0  0  0
  3  4  1  0  0  0  0
  3 85  1  0  0  0  0
  3 86  1  0  0  0  0
  4  5  1  0  0  0  0
  4 87  1  0  0  0  0
  4 88  1  0  0  0  0
  5  6  1  0  0  0  0
  5 89  1  0  0  0  0
  5 90  1  0  0  0  0
  6  7  1  0  0  0  0
  6 91  1  0  0  0  0
  6 92  1  0  0  0  0
  7  8  1  0  0  0  0
  7 93  1  0  0  0  0
  8  9  1  0  0  0  0
  9 10  1  0  0  0  0
 10 11  1  0  0  0  0
 11 12  1  0  0  0  0
 12 13  1  0  0  0  0
 13 14  1  0  0  0  0
 14 15  1  0  0  0  0
 15 16  1  0  0  0  0
 16 17  1  0  0  0  0
 17 18  1  0  0  0  0
 18 19  1  0  0  0  0
 19 20  1  0  0  0  0
 20 21  1  0  0  0  0
 21 22  1  0  0  0  0
 22 23  1  0  0  0  0
 23 24  1  0  0  0  0
 24 25  1  0  0  0  0
 25 26  1  0  0  0  0
 26 27  1  0  0  0  0
 27 28  1  0  0  0  0
 28 29  1  0  0  0  0
 29 30  1  0  0  0  0
 30 31  1  0  0  0  0
 31 32  1  0  0  0  0
 32 33  1  0  0  0  0
 33 34  1  0  0  0  0
 34 35  1  0  0  0  0
 35 36  1  0  0  0  0
 36 37  1  0  0  0  0
 37 38  1  0  0  0  0
 38 39  1  0  0  0  0
 39 40  1  0  0  0  0
 40 41  1  0  0  0  0
 41 42  1  0  0  0  0
 42 43  1  0  0  0  0
 43 44  1  0  0  0  0
 44 45  1  0  0  0  0
 45 46  1  0  0  0  0
 46 47  1  0  0  0  0
 47 48  1  0  0  0  0
 48 49  1  0  0  0  0
 49 50  1  0  0  0  0
 50 51  1  0  0  0  0
 51 52  1  0  0  0  0
 52 53  1  0  0  0  0
 53 54  1  0  0  0  0
 54 55  1  0  0  0  0
 55 56  1  0  0  0  0
 56 57  1  0  0  0  0
 57 58  1  0  0  0  0
 58 59  1  0  0  0  0
 59 60  1  0  0  0  0
 60 61  1  0  0  0  0
 61 62  1  0  0  0  0
 62 63  1  0  0  0  0
 63 64  1  0  0  0  0
 64 65  1  0  0  0  0
 65 66  1  0  0  0  0
 66 67  1  0  0  0  0
 67 68  1  0  0  0  0
 68 69  1  0  0  0  0
 69 70  1  0  0  0  0
 70 71  1  0  0  0  0
 71 72  1  0  0  0  0
 72 73  1  0  0  0  0
 73 74  1  0  0  0  0
 74 75  1  0  0  0  0
 75 76  1  0  0  0  0
 76 77  1  0  0  0  0
 77 78  1  0  0  0  0
 78 79  1  0  0  0  0
 79 80  1  0  0  0  0
 80 81  1  0  0  0  0
 81 94  1  0  0  0  0
M  END
$$$$
