
 OpenBabel04232217023D

 42 41  0  0  0  0  0  0  0  0999 V2000
    9.0057   -0.0042   10.8033 O   0  0  0  0  0  0  0  0  0  0  0  0
   10.3009    0.5758   11.1075 O   0  0  0  0  0  0  0  0  0  0  0  0
   11.1648    0.5716    9.9362 O   0  0  0  0  0  0  0  0  0  0  0  0
   10.6429    1.4382    8.8878 N   0  0  0  0  0  0  0  0  0  0  0  0
   10.6947    3.0375    9.2997 S   0  0  0  0  0  0  0  0  0  0  0  0
   12.2522    3.3121    9.7625 N   0  0  0  0  0  0  0  0  0  0  0  0
   12.4423    4.9020   10.1718 S   0  0  0  0  0  0  0  0  0  0  0  0
   14.4875    4.9122   10.3513 S   0  0  0  0  0  0  0  0  0  0  0  0
   15.1514    4.5218    8.4509 S   0  0  0  0  0  0  0  0  0  0  0  0
   14.7017    6.2033    7.3824 S   0  0  0  0  0  0  0  0  0  0  0  0
   15.8547    6.0595    5.7034 S   0  0  0  0  0  0  0  0  0  0  0  0
   14.9560    7.2924    4.3336 S   0  0  0  0  0  0  0  0  0  0  0  0
   15.3370    9.1836    5.0364 S   0  0  0  0  0  0  0  0  0  0  0  0
   16.9800    9.1791    4.8555 N   0  0  0  0  0  0  0  0  0  0  0  0
   17.5434   10.3270    5.4774 N   0  0  0  0  0  0  0  0  0  0  0  0
   18.9452   10.1812    5.6088 N   0  0  0  0  0  0  0  0  0  0  0  0
   19.5503   11.3512    6.1655 N   0  0  0  0  0  0  0  0  0  0  0  0
   19.1250   11.6397    7.5101 N   0  0  0  0  0  0  0  0  0  0  0  0
   19.4549   10.5543    8.3804 N   0  0  0  0  0  0  0  0  0  0  0  0
   19.0741   10.8785    9.7578 C   0  0  0  0  0  0  0  0  0  0  0  0
   19.4540    9.7218   10.6894 C   0  0  0  0  0  0  0  0  0  0  0  0
   20.8784    9.6071   10.7575 O   0  0  0  0  0  0  0  0  0  0  0  0
   21.2754    8.5177   11.5900 C   0  0  0  0  0  0  0  0  0  0  0  0
   22.7888    8.4328   11.5669 C   0  0  0  0  0  0  0  0  0  0  0  0
    8.7633   -0.1711   11.7305 H   0  0  0  0  0  0  0  0  0  0  0  0
    9.6766    1.1070    8.8730 H   0  0  0  0  0  0  0  0  0  0  0  0
   12.8753    3.0716    8.9944 H   0  0  0  0  0  0  0  0  0  0  0  0
   17.2422    9.1102    3.8737 H   0  0  0  0  0  0  0  0  0  0  0  0
   17.1642   10.3722    6.4308 H   0  0  0  0  0  0  0  0  0  0  0  0
   19.3897    9.9399    4.7215 H   0  0  0  0  0  0  0  0  0  0  0  0
   19.3774   12.1607    5.5641 H   0  0  0  0  0  0  0  0  0  0  0  0
   18.1226   11.8432    7.5261 H   0  0  0  0  0  0  0  0  0  0  0  0
   20.4629   10.3754    8.3526 H   0  0  0  0  0  0  0  0  0  0  0  0
   17.9902   11.0339    9.8152 H   0  0  0  0  0  0  0  0  0  0  0  0
   19.5806   11.7938   10.0851 H   0  0  0  0  0  0  0  0  0  0  0  0
   19.0206    8.7811   10.3268 H   0  0  0  0  0  0  0  0  0  0  0  0
   19.0628    9.9230   11.6930 H   0  0  0  0  0  0  0  0  0  0  0  0
   20.8427    7.5858   11.2134 H   0  0  0  0  0  0  0  0  0  0  0  0
   20.9246    8.6927   12.6117 H   0  0  0  0  0  0  0  0  0  0  0  0
   23.1462    8.2598   10.5456 H   0  0  0  0  0  0  0  0  0  0  0  0
   23.1450    7.6166   12.1990 H   0  0  0  0  0  0  0  0  0  0  0  0
   23.2350    9.3688   11.9085 H   0  0  0  0  0  0  0  0  0  0  0  0
  1  2  1  0  0  0  0
  1 25  1  0  0  0  0
  2  3  1  0  0  0  0
  3  4  1  0  0  0  0
  4  5  1  0  0  0  0
  4 26  1  0  0  0  0
  5  6  1  0  0  0  0
  6  7  1  0  0  0  0
  6 27  1  0  0  0  0
  7  8  1  0  0  0  0
  8  9  1  0  0  0  0
  9 10  1  0  0  0  0
 10 11  1  0  0  0  0
 11 12  1  0  0  0  0
 12 13  1  0  0  0  0
 13 14  1  0  0  0  0
 14 15  1  0  0  0  0
 14 28  1  0  0  0  0
 15 16  1  0  0  0  0
 15 29  1  0  0  0  0
 16 17  1  0  0  0  0
 16 30  1  0  0  0  0
 17 18  1  0  0  0  0
 17 31  1  0  0  0  0
 18 19  1  0  0  0  0
 18 32  1  0  0  0  0
 19 20  1  0  0  0  0
 19 33  1  0  0  0  0
 20 21  1  0  0  0  0
 20 34  1  0  0  0  0
 20 35  1  0  0  0  0
 21 22  1  0  0  0  0
 21 36  1  0  0  0  0
 21 37  1  0  0  0  0
 22 23  1  0  0  0  0
 23 24  1  0  0  0  0
 23 38  1  0  0  0  0
 23 39  1  0  0  0  0
 24 40  1  0  0  0  0
 24 41  1  0  0  0  0
 24 42  1  0  0  0  0
M  END
$$$$
