
 OpenBabel04232216483D

 44 45  0  0  0  0  0  0  0  0999 V2000
   -5.3080   -3.0414   -6.1335 C   0  0  0  0  0  0  0  0  0  0  0  0
   -4.9685   -2.2742   -4.8891 C   0  0  0  0  0  0  0  0  0  0  0  0
   -3.8546   -1.4305   -4.8379 C   0  0  0  0  0  0  0  0  0  0  0  0
   -3.5453   -0.7340   -3.6643 C   0  0  0  0  0  0  0  0  0  0  0  0
   -4.3387   -0.8730   -2.5159 C   0  0  0  0  0  0  0  0  0  0  0  0
   -3.9746   -0.1524   -1.2371 C   0  0  0  0  0  0  0  0  0  0  0  0
   -4.5346    1.2373   -1.1488 C   0  0  0  0  0  0  0  0  0  0  0  0
   -5.2927    1.7100   -0.1437 C   0  0  0  0  0  0  0  0  0  0  0  0
   -5.7553    3.1400   -0.0893 C   0  0  0  0  0  0  0  0  0  0  0  0
   -7.2751    3.2260   -0.1106 C   0  0  0  0  0  0  0  0  0  0  0  0
   -7.7403    4.6556   -0.1073 C   0  0  0  0  0  0  0  0  0  0  0  0
   -6.9759    5.6214   -0.0852 O   0  0  0  0  0  0  0  0  0  0  0  0
   -9.0826    4.8758   -0.1294 N   0  0  0  0  0  0  0  0  0  0  0  0
  -10.1671    4.0349   -0.1738 C   0  0  0  0  0  0  0  0  0  0  0  0
  -11.5278    4.4359   -0.2226 C   0  0  0  0  0  0  0  0  0  0  0  0
  -11.9061    3.1528   -0.2528 C   0  0  0  0  0  0  0  0  0  0  0  0
  -13.3066    2.7469   -0.3396 C   0  0  0  0  0  0  0  0  0  0  0  0
  -14.2261    3.5691   -0.4077 O   0  0  0  0  0  0  0  0  0  0  0  0
  -13.5390    1.4029   -0.3361 O   0  0  0  0  0  0  0  0  0  0  0  0
  -14.9592    1.1640   -0.4176 C   0  0  0  0  0  0  0  0  0  0  0  0
  -10.5473    2.7319   -0.1882 C   0  0  0  0  0  0  0  0  0  0  0  0
   -5.4635   -1.7053   -2.5764 C   0  0  0  0  0  0  0  0  0  0  0  0
   -5.7713   -2.4027   -3.7498 C   0  0  0  0  0  0  0  0  0  0  0  0
   -4.6061   -2.8272   -6.9463 H   0  0  0  0  0  0  0  0  0  0  0  0
   -6.3120   -2.7747   -6.4795 H   0  0  0  0  0  0  0  0  0  0  0  0
   -5.2723   -4.1178   -5.9349 H   0  0  0  0  0  0  0  0  0  0  0  0
   -3.2128   -1.3123   -5.7081 H   0  0  0  0  0  0  0  0  0  0  0  0
   -2.6687   -0.0900   -3.6487 H   0  0  0  0  0  0  0  0  0  0  0  0
   -2.8812   -0.0786   -1.1763 H   0  0  0  0  0  0  0  0  0  0  0  0
   -4.2768   -0.7600   -0.3751 H   0  0  0  0  0  0  0  0  0  0  0  0
   -4.2510    1.9135   -1.9518 H   0  0  0  0  0  0  0  0  0  0  0  0
   -5.5792    1.0657    0.6851 H   0  0  0  0  0  0  0  0  0  0  0  0
   -5.3418    3.7113   -0.9307 H   0  0  0  0  0  0  0  0  0  0  0  0
   -5.3627    3.6084    0.8222 H   0  0  0  0  0  0  0  0  0  0  0  0
   -7.6925    2.7320    0.7732 H   0  0  0  0  0  0  0  0  0  0  0  0
   -7.6635    2.7462   -1.0154 H   0  0  0  0  0  0  0  0  0  0  0  0
   -9.2984    5.8720   -0.1358 H   0  0  0  0  0  0  0  0  0  0  0  0
  -12.0548    5.3816   -0.2454 H   0  0  0  0  0  0  0  0  0  0  0  0
  -15.1726    0.0928   -0.4230 H   0  0  0  0  0  0  0  0  0  0  0  0
  -15.3662    1.5959   -1.3423 H   0  0  0  0  0  0  0  0  0  0  0  0
  -15.4711    1.6086    0.4472 H   0  0  0  0  0  0  0  0  0  0  0  0
  -10.0301    1.7721   -0.1751 H   0  0  0  0  0  0  0  0  0  0  0  0
   -6.1016   -1.8293   -1.7049 H   0  0  0  0  0  0  0  0  0  0  0  0
   -6.6411   -3.0555   -3.7687 H   0  0  0  0  0  0  0  0  0  0  0  0
  1  2  1  0  0  0  0
  1 24  1  0  0  0  0
  1 25  1  0  0  0  0
  1 26  1  0  0  0  0
  2  3  1  0  0  0  0
  2 23  2  0  0  0  0
  3  4  2  0  0  0  0
  3 27  1  0  0  0  0
  4  5  1  0  0  0  0
  4 28  1  0  0  0  0
  5  6  1  0  0  0  0
  5 22  2  0  0  0  0
  6  7  1  0  0  0  0
  6 29  1  0  0  0  0
  6 30  1  0  0  0  0
  7  8  2  3  0  0  0
  7 31  1  0  0  0  0
  8  9  1  0  0  0  0
  8 32  1  0  0  0  0
  9 10  1  0  0  0  0
  9 33  1  0  0  0  0
  9 34  1  0  0  0  0
 10 11  1  0  0  0  0
 10 35  1  0  0  0  0
 10 36  1  0  0  0  0
 11 12  2  0  0  0  0
 11 13  1  0  0  0  0
 13 14  1  0  0  0  0
 13 37  1  0  0  0  0
 14 15  1  0  0  0  0
 14 21  2  0  0  0  0
 15 16  2  0  0  0  0
 15 38  1  0  0  0  0
 16 17  1  0  0  0  0
 16 21  1  0  0  0  0
 17 18  2  0  0  0  0
 17 19  1  0  0  0  0
 19 20  1  0  0  0  0
 20 39  1  0  0  0  0
 20 40  1  0  0  0  0
 20 41  1  0  0  0  0
 21 42  1  0  0  0  0
 22 23  1  0  0  0  0
 22 43  1  0  0  0  0
 23 44  1  0  0  0  0
M  END
$$$$
