
 OpenBabel04232216523D

 82 82  0  0  1  0  0  0  0  0999 V2000
    0.8319    0.1344    2.3253 C   0  0  0  0  0  0  0  0  0  0  0  0
    2.3239    0.3489    2.5337 C   0  0  0  0  0  0  0  0  0  0  0  0
    3.1438    0.0477    1.2673 C   0  0  0  0  0  0  0  0  0  0  0  0
    4.6512    0.3361    1.4621 C   0  0  3  0  0  0  0  0  0  0  0  0
    5.2695   -0.5926    2.4601 C   0  0  0  0  0  3  0  0  0  0  0  0
    5.8649   -0.0764    3.7323 C   0  0  0  0  0  0  0  0  0  0  0  0
    7.3344   -0.4901    3.8886 C   0  0  0  0  0  0  0  0  0  0  0  0
    8.3153    0.6700    3.6526 C   0  0  0  0  0  0  0  0  0  0  0  0
    9.3943    0.3474    2.6085 C   0  0  0  0  0  0  0  0  0  0  0  0
    9.5280    1.4557    1.5564 C   0  0  0  0  0  0  0  0  0  0  0  0
    9.5117    0.9115    0.1210 C   0  0  0  0  0  0  0  0  0  0  0  0
    8.6187    1.7356   -0.8134 C   0  0  0  0  0  0  0  0  0  0  0  0
    7.3241    1.0366   -1.2854 C   0  0  0  0  0  0  0  0  0  0  0  0
    5.9457    1.3833   -0.6433 C   0  0  3  0  0  0  0  0  0  0  0  0
    5.8643    2.7257    0.0889 C   0  0  0  0  0  0  0  0  0  0  0  0
    6.1328    3.9556   -0.7754 C   0  0  0  0  0  0  0  0  0  0  0  0
    6.1597    5.1826    0.1303 C   0  0  0  0  0  0  0  0  0  0  0  0
    6.5577    6.4327   -0.6356 C   0  0  0  0  0  0  0  0  0  0  0  0
    6.5051    7.6404    0.2854 C   0  0  0  0  0  0  0  0  0  0  0  0
    6.8946    8.9019   -0.4747 C   0  0  0  0  0  0  0  0  0  0  0  0
    6.8255   10.1171    0.4408 C   0  0  0  0  0  0  0  0  0  0  0  0
    7.2000   11.3784   -0.3196 C   0  0  0  0  0  0  0  0  0  0  0  0
    7.1285   12.5978    0.5909 C   0  0  0  0  0  0  0  0  0  0  0  0
    7.5003   13.8643   -0.1725 C   0  0  0  0  0  0  0  0  0  0  0  0
    7.4323   15.0834    0.7432 C   0  0  0  0  0  0  0  0  0  0  0  0
    7.8012   16.3579   -0.0109 C   0  0  0  0  0  0  0  0  0  0  0  0
    7.7325   17.5712    0.8988 C   0  0  0  0  0  0  0  0  0  0  0  0
    5.4199    0.2170    0.1715 C   0  0  0  0  0  3  0  0  0  0  0  0
    0.2834    0.4006    3.2354 H   0  0  0  0  0  0  0  0  0  0  0  0
    0.6124   -0.9125    2.0935 H   0  0  0  0  0  0  0  0  0  0  0  0
    0.4515    0.7579    1.5095 H   0  0  0  0  0  0  0  0  0  0  0  0
    2.6532   -0.2892    3.3613 H   0  0  0  0  0  0  0  0  0  0  0  0
    2.4906    1.3884    2.8402 H   0  0  0  0  0  0  0  0  0  0  0  0
    2.7574    0.6661    0.4460 H   0  0  0  0  0  0  0  0  0  0  0  0
    2.9852   -0.9983    0.9734 H   0  0  0  0  0  0  0  0  0  0  0  0
    4.7337    1.3489    1.8610 H   0  0  0  0  0  0  0  0  0  0  0  0
    5.2281   -1.6640    2.2910 H   0  0  0  0  0  0  0  0  0  0  0  0
    5.2851   -0.5069    4.5563 H   0  0  0  0  0  0  0  0  0  0  0  0
    5.7415    1.0093    3.8127 H   0  0  0  0  0  0  0  0  0  0  0  0
    7.5622   -1.3501    3.2479 H   0  0  0  0  0  0  0  0  0  0  0  0
    7.4775   -0.8399    4.9181 H   0  0  0  0  0  0  0  0  0  0  0  0
    8.8201    0.8882    4.6030 H   0  0  0  0  0  0  0  0  0  0  0  0
    7.7751    1.5871    3.3958 H   0  0  0  0  0  0  0  0  0  0  0  0
    9.2035   -0.6191    2.1332 H   0  0  0  0  0  0  0  0  0  0  0  0
   10.3578    0.2376    3.1238 H   0  0  0  0  0  0  0  0  0  0  0  0
   10.4801    1.9788    1.7207 H   0  0  0  0  0  0  0  0  0  0  0  0
    8.7550    2.2181    1.6872 H   0  0  0  0  0  0  0  0  0  0  0  0
    9.2414   -0.1472    0.0762 H   0  0  0  0  0  0  0  0  0  0  0  0
   10.5415    0.9728   -0.2582 H   0  0  0  0  0  0  0  0  0  0  0  0
    9.2093    1.9221   -1.7216 H   0  0  0  0  0  0  0  0  0  0  0  0
    8.4493    2.7249   -0.3895 H   0  0  0  0  0  0  0  0  0  0  0  0
    7.4793   -0.0505   -1.2919 H   0  0  0  0  0  0  0  0  0  0  0  0
    7.2216    1.2978   -2.3488 H   0  0  0  0  0  0  0  0  0  0  0  0
    5.2383    1.4537   -1.4837 H   0  0  0  0  0  0  0  0  0  0  0  0
    6.5325    2.7105    0.9582 H   0  0  0  0  0  0  0  0  0  0  0  0
    4.8479    2.8627    0.4805 H   0  0  0  0  0  0  0  0  0  0  0  0
    5.3423    4.0612   -1.5277 H   0  0  0  0  0  0  0  0  0  0  0  0
    7.0719    3.8849   -1.3282 H   0  0  0  0  0  0  0  0  0  0  0  0
    6.8713    5.0254    0.9514 H   0  0  0  0  0  0  0  0  0  0  0  0
    5.1712    5.3202    0.5853 H   0  0  0  0  0  0  0  0  0  0  0  0
    5.8752    6.5798   -1.4870 H   0  0  0  0  0  0  0  0  0  0  0  0
    7.5668    6.3118   -1.0447 H   0  0  0  0  0  0  0  0  0  0  0  0
    7.1964    7.4932    1.1329 H   0  0  0  0  0  0  0  0  0  0  0  0
    5.4990    7.7500    0.7003 H   0  0  0  0  0  0  0  0  0  0  0  0
    6.2153    9.0411   -1.3236 H   0  0  0  0  0  0  0  0  0  0  0  0
    7.9062    8.7984   -0.8775 H   0  0  0  0  0  0  0  0  0  0  0  0
    7.5059    9.9788    1.2932 H   0  0  0  0  0  0  0  0  0  0  0  0
    5.8119   10.2155    0.8534 H   0  0  0  0  0  0  0  0  0  0  0  0
    6.5154   11.5110   -1.1731 H   0  0  0  0  0  0  0  0  0  0  0  0
    8.2115   11.2778   -0.7295 H   0  0  0  0  0  0  0  0  0  0  0  0
    7.8116   12.4626    1.4393 H   0  0  0  0  0  0  0  0  0  0  0  0
    6.1163   12.6944    0.9999 H   0  0  0  0  0  0  0  0  0  0  0  0
    6.8195   13.9990   -1.0216 H   0  0  0  0  0  0  0  0  0  0  0  0
    8.5139   13.7651   -0.5824 H   0  0  0  0  0  0  0  0  0  0  0  0
    8.1141   14.9454    1.5910 H   0  0  0  0  0  0  0  0  0  0  0  0
    6.4199   15.1773    1.1548 H   0  0  0  0  0  0  0  0  0  0  0  0
    7.1186   16.5000   -0.8578 H   0  0  0  0  0  0  0  0  0  0  0  0
    8.8135   16.2684   -0.4214 H   0  0  0  0  0  0  0  0  0  0  0  0
    6.7234   17.6987    1.3048 H   0  0  0  0  0  0  0  0  0  0  0  0
    7.9944   18.4765    0.3434 H   0  0  0  0  0  0  0  0  0  0  0  0
    8.4294   17.4704    1.7371 H   0  0  0  0  0  0  0  0  0  0  0  0
    5.4067   -0.7549   -0.3189 H   0  0  0  0  0  0  0  0  0  0  0  0
  1  2  1  0  0  0  0
  1 29  1  0  0  0  0
  1 30  1  0  0  0  0
  1 31  1  0  0  0  0
  2  3  1  0  0  0  0
  2 32  1  0  0  0  0
  2 33  1  0  0  0  0
  3  4  1  0  0  0  0
  3 34  1  0  0  0  0
  3 35  1  0  0  0  0
  4  5  1  0  0  0  0
  4 28  1  0  0  0  0
  4 36  1  0  0  0  0
  5  6  1  0  0  0  0
  5 37  1  0  0  0  0
  6  7  1  0  0  0  0
  6 38  1  0  0  0  0
  6 39  1  0  0  0  0
  7  8  1  0  0  0  0
  7 40  1  0  0  0  0
  7 41  1  0  0  0  0
  8  9  1  0  0  0  0
  8 42  1  0  0  0  0
  8 43  1  0  0  0  0
  9 10  1  0  0  0  0
  9 44  1  0  0  0  0
  9 45  1  0  0  0  0
 10 11  1  0  0  0  0
 10 46  1  0  0  0  0
 10 47  1  0  0  0  0
 11 12  1  0  0  0  0
 11 48  1  0  0  0  0
 11 49  1  0  0  0  0
 12 13  1  0  0  0  0
 12 50  1  0  0  0  0
 12 51  1  0  0  0  0
 13 14  1  0  0  0  0
 13 52  1  0  0  0  0
 13 53  1  0  0  0  0
 14 15  1  0  0  0  0
 14 28  1  0  0  0  0
 14 54  1  0  0  0  0
 15 16  1  0  0  0  0
 15 55  1  0  0  0  0
 15 56  1  0  0  0  0
 16 17  1  0  0  0  0
 16 57  1  0  0  0  0
 16 58  1  0  0  0  0
 17 18  1  0  0  0  0
 17 59  1  0  0  0  0
 17 60  1  0  0  0  0
 18 19  1  0  0  0  0
 18 61  1  0  0  0  0
 18 62  1  0  0  0  0
 19 20  1  0  0  0  0
 19 63  1  0  0  0  0
 19 64  1  0  0  0  0
 20 21  1  0  0  0  0
 20 65  1  0  0  0  0
 20 66  1  0  0  0  0
 21 22  1  0  0  0  0
 21 67  1  0  0  0  0
 21 68  1  0  0  0  0
 22 23  1  0  0  0  0
 22 69  1  0  0  0  0
 22 70  1  0  0  0  0
 23 24  1  0  0  0  0
 23 71  1  0  0  0  0
 23 72  1  0  0  0  0
 24 25  1  0  0  0  0
 24 73  1  0  0  0  0
 24 74  1  0  0  0  0
 25 26  1  0  0  0  0
 25 75  1  0  0  0  0
 25 76  1  0  0  0  0
 26 27  1  0  0  0  0
 26 77  1  0  0  0  0
 26 78  1  0  0  0  0
 27 79  1  0  0  0  0
 27 80  1  0  0  0  0
 27 81  1  0  0  0  0
 28 82  1  0  0  0  0
M  END
$$$$
