
 OpenBabel04232217013D

239238  0  0  0  0  0  0  0  0999 V2000
    0.9533    0.0343    0.1661 O   0  0  0  0  0  0  0  0  0  0  0  0
    2.3742    0.0089    0.1560 C   0  0  0  0  0  0  0  0  0  0  0  0
    2.8864    1.3657    0.6017 C   0  0  0  0  0  0  0  0  0  0  0  0
    4.4058    1.3837    0.6044 C   0  0  0  0  0  0  0  0  0  0  0  0
    4.9285    2.7376    1.0491 C   0  0  0  0  0  0  0  0  0  0  0  0
    6.4443    2.7386    1.0441 C   0  0  0  0  0  0  0  0  0  0  0  0
    6.8691    4.0270    1.4603 O   0  0  0  0  0  0  0  0  0  0  0  0
    8.3185    4.0333    1.4633 N   0  0  0  0  0  0  0  0  0  0  0  0
    8.7720    5.3097    1.8822 N   0  0  0  0  0  0  0  0  0  0  0  0
   10.2259    5.2876    1.8710 C   0  0  0  0  0  0  0  0  0  0  0  0
   10.7312    6.6499    2.3184 C   0  0  0  0  0  0  0  0  0  0  0  0
   12.2511    6.6604    2.3194 C   0  0  0  0  0  0  0  0  0  0  0  0
   12.7629    8.0189    2.7633 C   0  0  0  0  0  0  0  0  0  0  0  0
   14.2806    8.0265    2.7616 C   0  0  0  0  0  0  0  0  0  0  0  0
   14.7920    9.3845    3.2053 C   0  0  0  0  0  0  0  0  0  0  0  0
   16.3091    9.3900    3.2050 C   0  0  0  0  0  0  0  0  0  0  0  0
   16.8198   10.7472    3.6506 C   0  0  0  0  0  0  0  0  0  0  0  0
   18.3366   10.7532    3.6484 C   0  0  0  0  0  0  0  0  0  0  0  0
   18.8467   12.1096    4.0959 C   0  0  0  0  0  0  0  0  0  0  0  0
   20.3633   12.1150    4.0956 C   0  0  0  0  0  0  0  0  0  0  0  0
   20.8737   13.4707    4.5449 C   0  0  0  0  0  0  0  0  0  0  0  0
   22.3903   13.4766    4.5427 C   0  0  0  0  0  0  0  0  0  0  0  0
   22.9004   14.8329    4.9902 C   0  0  0  0  0  0  0  0  0  0  0  0
   24.4169   14.8382    4.9897 C   0  0  0  0  0  0  0  0  0  0  0  0
   24.9270   16.1944    5.4372 C   0  0  0  0  0  0  0  0  0  0  0  0
   26.4436   16.1992    5.4387 C   0  0  0  0  0  0  0  0  0  0  0  0
   26.9538   17.5554    5.8862 C   0  0  0  0  0  0  0  0  0  0  0  0
   28.4702   17.5601    5.8878 C   0  0  0  0  0  0  0  0  0  0  0  0
   28.9804   18.9163    6.3352 C   0  0  0  0  0  0  0  0  0  0  0  0
   30.4969   18.9210    6.3368 C   0  0  0  0  0  0  0  0  0  0  0  0
   31.0071   20.2772    6.7842 C   0  0  0  0  0  0  0  0  0  0  0  0
   32.5236   20.2819    6.7858 C   0  0  0  0  0  0  0  0  0  0  0  0
   33.0338   21.6381    7.2332 C   0  0  0  0  0  0  0  0  0  0  0  0
   34.5503   21.6422    7.2366 C   0  0  0  0  0  0  0  0  0  0  0  0
   35.0604   22.9984    7.6841 C   0  0  0  0  0  0  0  0  0  0  0  0
   36.5769   23.0031    7.6858 C   0  0  0  0  0  0  0  0  0  0  0  0
   37.0871   24.3587    8.1350 C   0  0  0  0  0  0  0  0  0  0  0  0
   38.6036   24.3628    8.1384 C   0  0  0  0  0  0  0  0  0  0  0  0
   39.1137   25.7190    8.5860 C   0  0  0  0  0  0  0  0  0  0  0  0
   40.6302   25.7237    8.5876 C   0  0  0  0  0  0  0  0  0  0  0  0
   41.1404   27.0793    9.0368 C   0  0  0  0  0  0  0  0  0  0  0  0
   42.6569   27.0840    9.0384 C   0  0  0  0  0  0  0  0  0  0  0  0
   43.1671   28.4396    9.4878 C   0  0  0  0  0  0  0  0  0  0  0  0
   44.6835   28.4443    9.4894 C   0  0  0  0  0  0  0  0  0  0  0  0
   45.1937   29.7998    9.9387 C   0  0  0  0  0  0  0  0  0  0  0  0
   46.7102   29.8046    9.9403 C   0  0  0  0  0  0  0  0  0  0  0  0
   47.2204   31.1601   10.3897 C   0  0  0  0  0  0  0  0  0  0  0  0
   48.7368   31.1649   10.3912 C   0  0  0  0  0  0  0  0  0  0  0  0
   49.2470   32.5204   10.8406 C   0  0  0  0  0  0  0  0  0  0  0  0
   50.7635   32.5258   10.8402 C   0  0  0  0  0  0  0  0  0  0  0  0
   51.2737   33.8813   11.2896 C   0  0  0  0  0  0  0  0  0  0  0  0
   52.7902   33.8873   11.2873 C   0  0  0  0  0  0  0  0  0  0  0  0
   53.3003   35.2422   11.7386 C   0  0  0  0  0  0  0  0  0  0  0  0
   54.8168   35.2488   11.7344 C   0  0  0  0  0  0  0  0  0  0  0  0
   55.3270   36.6045   12.1838 C   0  0  0  0  0  0  0  0  0  0  0  0
   56.8435   36.6117   12.1777 C   0  0  0  0  0  0  0  0  0  0  0  0
   57.3536   37.9679   12.6251 C   0  0  0  0  0  0  0  0  0  0  0  0
   58.8701   37.9758   12.6171 C   0  0  0  0  0  0  0  0  0  0  0  0
   59.3802   39.3320   13.0645 C   0  0  0  0  0  0  0  0  0  0  0  0
   60.8967   39.3406   13.0546 C   0  0  0  0  0  0  0  0  0  0  0  0
   61.4068   40.6968   13.5020 C   0  0  0  0  0  0  0  0  0  0  0  0
   62.9233   40.7053   13.4921 C   0  0  0  0  0  0  0  0  0  0  0  0
   63.4334   42.0615   13.9395 C   0  0  0  0  0  0  0  0  0  0  0  0
   64.9499   42.0701   13.9296 C   0  0  0  0  0  0  0  0  0  0  0  0
   65.4600   43.4262   14.3770 C   0  0  0  0  0  0  0  0  0  0  0  0
   66.9764   43.4348   14.3671 C   0  0  0  0  0  0  0  0  0  0  0  0
   67.4866   44.7910   14.8145 C   0  0  0  0  0  0  0  0  0  0  0  0
   69.0031   44.7996   14.8046 C   0  0  0  0  0  0  0  0  0  0  0  0
   69.5133   46.1558   15.2521 C   0  0  0  0  0  0  0  0  0  0  0  0
   71.0298   46.1637   15.2440 C   0  0  0  0  0  0  0  0  0  0  0  0
   71.5399   47.5199   15.6914 C   0  0  0  0  0  0  0  0  0  0  0  0
   73.0564   47.5278   15.6834 C   0  0  0  0  0  0  0  0  0  0  0  0
   73.5666   48.8841   16.1309 C   0  0  0  0  0  0  0  0  0  0  0  0
   75.0833   48.8920   16.1229 C   0  0  0  0  0  0  0  0  0  0  0  0
   75.5940   50.2485   16.5705 C   0  0  0  0  0  0  0  0  0  0  0  0
   77.1114   50.2562   16.5645 C   0  0  0  0  0  0  0  0  0  0  0  0
   77.6237   51.6124   17.0119 C   0  0  0  0  0  0  0  0  0  0  0  0
   79.1429   51.6216   17.0065 C   0  0  0  0  0  0  0  0  0  0  0  0
   79.6567   52.9800   17.4525 C   0  0  0  0  0  0  0  0  0  0  0  0
   81.1781   52.9995   17.4483 C   0  0  0  0  0  0  0  0  0  0  0  0
   81.6896   54.3548   17.8933 C   0  0  0  0  0  0  0  0  0  0  0  0
    0.6442   -0.8413   -0.1201 H   0  0  0  0  0  0  0  0  0  0  0  0
    2.7182   -0.2202   -0.8579 H   0  0  0  0  0  0  0  0  0  0  0  0
    2.7210   -0.7769    0.8351 H   0  0  0  0  0  0  0  0  0  0  0  0
    2.4996    1.5992    1.6018 H   0  0  0  0  0  0  0  0  0  0  0  0
    2.4962    2.1467   -0.0630 H   0  0  0  0  0  0  0  0  0  0  0  0
    4.7826    1.1563   -0.4006 H   0  0  0  0  0  0  0  0  0  0  0  0
    4.7870    0.6045    1.2760 H   0  0  0  0  0  0  0  0  0  0  0  0
    4.5624    2.9869    2.0527 H   0  0  0  0  0  0  0  0  0  0  0  0
    4.5579    3.5314    0.3871 H   0  0  0  0  0  0  0  0  0  0  0  0
    6.8173    2.5414    0.0312 H   0  0  0  0  0  0  0  0  0  0  0  0
    6.8317    1.9717    1.7263 H   0  0  0  0  0  0  0  0  0  0  0  0
    8.5173    3.9324    0.4676 H   0  0  0  0  0  0  0  0  0  0  0  0
    8.4303    5.4901    2.8249 H   0  0  0  0  0  0  0  0  0  0  0  0
   10.5990    5.0785    0.8601 H   0  0  0  0  0  0  0  0  0  0  0  0
   10.6111    4.5105    2.5437 H   0  0  0  0  0  0  0  0  0  0  0  0
   10.3596    6.8820    3.3247 H   0  0  0  0  0  0  0  0  0  0  0  0
   10.3570    7.4325    1.6456 H   0  0  0  0  0  0  0  0  0  0  0  0
   12.6276    6.4311    1.3149 H   0  0  0  0  0  0  0  0  0  0  0  0
   12.6293    5.8815    2.9930 H   0  0  0  0  0  0  0  0  0  0  0  0
   12.3898    8.2489    3.7689 H   0  0  0  0  0  0  0  0  0  0  0  0
   12.3854    8.7989    2.0908 H   0  0  0  0  0  0  0  0  0  0  0  0
   14.6548    7.7975    1.7562 H   0  0  0  0  0  0  0  0  0  0  0  0
   14.6594    7.2473    3.4344 H   0  0  0  0  0  0  0  0  0  0  0  0
   14.4178    9.6148    4.2105 H   0  0  0  0  0  0  0  0  0  0  0  0
   14.4155   10.1643    2.5319 H   0  0  0  0  0  0  0  0  0  0  0  0
   16.6839    9.1612    2.1998 H   0  0  0  0  0  0  0  0  0  0  0  0
   16.6863    8.6097    3.8774 H   0  0  0  0  0  0  0  0  0  0  0  0
   16.4466   10.9754    4.6566 H   0  0  0  0  0  0  0  0  0  0  0  0
   16.4420   11.5280    2.9792 H   0  0  0  0  0  0  0  0  0  0  0  0
   18.7100   10.5267    2.6422 H   0  0  0  0  0  0  0  0  0  0  0  0
   18.7147    9.9718    4.3190 H   0  0  0  0  0  0  0  0  0  0  0  0
   18.4723   12.3369    5.1017 H   0  0  0  0  0  0  0  0  0  0  0  0
   18.4699   12.8911    3.4246 H   0  0  0  0  0  0  0  0  0  0  0  0
   20.7379   11.8892    3.0895 H   0  0  0  0  0  0  0  0  0  0  0  0
   20.7403   11.3327    4.7659 H   0  0  0  0  0  0  0  0  0  0  0  0
   20.5003   13.6959    5.5516 H   0  0  0  0  0  0  0  0  0  0  0  0
   20.4956   14.2532    3.8755 H   0  0  0  0  0  0  0  0  0  0  0  0
   22.7636   13.2501    3.5364 H   0  0  0  0  0  0  0  0  0  0  0  0
   22.7682   12.6950    5.2132 H   0  0  0  0  0  0  0  0  0  0  0  0
   22.5259   15.0601    5.9959 H   0  0  0  0  0  0  0  0  0  0  0  0
   22.5235   15.6143    4.3188 H   0  0  0  0  0  0  0  0  0  0  0  0
   24.7915   14.6110    3.9840 H   0  0  0  0  0  0  0  0  0  0  0  0
   24.7938   14.0568    5.6612 H   0  0  0  0  0  0  0  0  0  0  0  0
   24.5514   16.4224    6.4424 H   0  0  0  0  0  0  0  0  0  0  0  0
   24.5514   16.9757    4.7650 H   0  0  0  0  0  0  0  0  0  0  0  0
   26.8193   15.9713    4.4336 H   0  0  0  0  0  0  0  0  0  0  0  0
   26.8193   15.4179    6.1110 H   0  0  0  0  0  0  0  0  0  0  0  0
   26.5780   17.7833    6.8914 H   0  0  0  0  0  0  0  0  0  0  0  0
   26.5781   18.3367    5.2140 H   0  0  0  0  0  0  0  0  0  0  0  0
   28.8460   17.3322    4.8826 H   0  0  0  0  0  0  0  0  0  0  0  0
   28.8460   16.7788    6.5600 H   0  0  0  0  0  0  0  0  0  0  0  0
   28.6047   19.1442    7.3404 H   0  0  0  0  0  0  0  0  0  0  0  0
   28.6047   19.6976    5.6630 H   0  0  0  0  0  0  0  0  0  0  0  0
   30.8726   18.6931    5.3316 H   0  0  0  0  0  0  0  0  0  0  0  0
   30.8726   18.1397    7.0090 H   0  0  0  0  0  0  0  0  0  0  0  0
   30.6314   20.5051    7.7894 H   0  0  0  0  0  0  0  0  0  0  0  0
   30.6314   21.0585    6.1120 H   0  0  0  0  0  0  0  0  0  0  0  0
   32.8993   20.0540    5.7806 H   0  0  0  0  0  0  0  0  0  0  0  0
   32.8993   19.5006    7.4580 H   0  0  0  0  0  0  0  0  0  0  0  0
   32.6569   21.8667    8.2378 H   0  0  0  0  0  0  0  0  0  0  0  0
   32.6592   22.4192    6.5602 H   0  0  0  0  0  0  0  0  0  0  0  0
   34.9271   21.4137    6.2321 H   0  0  0  0  0  0  0  0  0  0  0  0
   34.9248   20.8611    7.9097 H   0  0  0  0  0  0  0  0  0  0  0  0
   34.6846   23.2263    8.6893 H   0  0  0  0  0  0  0  0  0  0  0  0
   34.6847   23.7798    7.0119 H   0  0  0  0  0  0  0  0  0  0  0  0
   36.9526   22.7766    6.6803 H   0  0  0  0  0  0  0  0  0  0  0  0
   36.9526   22.2209    8.3569 H   0  0  0  0  0  0  0  0  0  0  0  0
   36.7102   24.5859    9.1400 H   0  0  0  0  0  0  0  0  0  0  0  0
   36.7125   25.1408    7.4631 H   0  0  0  0  0  0  0  0  0  0  0  0
   38.9804   24.1343    7.1339 H   0  0  0  0  0  0  0  0  0  0  0  0
   38.9781   23.5817    8.8115 H   0  0  0  0  0  0  0  0  0  0  0  0
   38.7379   25.9469    9.5911 H   0  0  0  0  0  0  0  0  0  0  0  0
   38.7381   26.5003    7.9138 H   0  0  0  0  0  0  0  0  0  0  0  0
   41.0059   25.4972    7.5821 H   0  0  0  0  0  0  0  0  0  0  0  0
   41.0059   24.9415    9.2587 H   0  0  0  0  0  0  0  0  0  0  0  0
   40.7647   27.3058   10.0423 H   0  0  0  0  0  0  0  0  0  0  0  0
   40.7647   27.8615    8.3658 H   0  0  0  0  0  0  0  0  0  0  0  0
   43.0326   26.8575    8.0329 H   0  0  0  0  0  0  0  0  0  0  0  0
   43.0326   26.3018    9.7095 H   0  0  0  0  0  0  0  0  0  0  0  0
   42.7913   28.6660   10.4933 H   0  0  0  0  0  0  0  0  0  0  0  0
   42.7913   29.2218    8.8167 H   0  0  0  0  0  0  0  0  0  0  0  0
   45.0592   28.2178    8.4839 H   0  0  0  0  0  0  0  0  0  0  0  0
   45.0592   27.6620   10.1605 H   0  0  0  0  0  0  0  0  0  0  0  0
   44.8180   30.0263   10.9442 H   0  0  0  0  0  0  0  0  0  0  0  0
   44.8180   30.5821    9.2676 H   0  0  0  0  0  0  0  0  0  0  0  0
   47.0859   29.5781    8.9348 H   0  0  0  0  0  0  0  0  0  0  0  0
   47.0859   29.0223   10.6114 H   0  0  0  0  0  0  0  0  0  0  0  0
   46.8446   31.3866   11.3951 H   0  0  0  0  0  0  0  0  0  0  0  0
   46.8446   31.9424    9.7185 H   0  0  0  0  0  0  0  0  0  0  0  0
   49.1125   30.9384    9.3857 H   0  0  0  0  0  0  0  0  0  0  0  0
   49.1126   30.3826   11.0623 H   0  0  0  0  0  0  0  0  0  0  0  0
   48.8725   32.7463   11.8466 H   0  0  0  0  0  0  0  0  0  0  0  0
   48.8702   33.3028   10.1703 H   0  0  0  0  0  0  0  0  0  0  0  0
   51.1380   32.2999    9.8341 H   0  0  0  0  0  0  0  0  0  0  0  0
   51.1404   31.7434   11.5104 H   0  0  0  0  0  0  0  0  0  0  0  0
   50.9003   34.1065   12.2962 H   0  0  0  0  0  0  0  0  0  0  0  0
   50.8957   34.6639   10.6201 H   0  0  0  0  0  0  0  0  0  0  0  0
   53.1635   33.6635   10.2803 H   0  0  0  0  0  0  0  0  0  0  0  0
   53.1683   33.1038   11.9556 H   0  0  0  0  0  0  0  0  0  0  0  0
   52.9282   35.4654   12.7461 H   0  0  0  0  0  0  0  0  0  0  0  0
   52.9211   36.0259   11.0711 H   0  0  0  0  0  0  0  0  0  0  0  0
   55.1890   35.0243   10.7271 H   0  0  0  0  0  0  0  0  0  0  0  0
   55.1961   34.4661   12.4029 H   0  0  0  0  0  0  0  0  0  0  0  0
   54.9560   36.8284   13.1915 H   0  0  0  0  0  0  0  0  0  0  0  0
   54.9466   37.3873   11.5160 H   0  0  0  0  0  0  0  0  0  0  0  0
   57.2145   36.3864   11.1701 H   0  0  0  0  0  0  0  0  0  0  0  0
   57.2239   35.8298   12.8464 H   0  0  0  0  0  0  0  0  0  0  0  0
   56.9837   38.1926   13.6331 H   0  0  0  0  0  0  0  0  0  0  0  0
   56.9721   38.7500   11.9571 H   0  0  0  0  0  0  0  0  0  0  0  0
   59.2399   37.7511   11.6090 H   0  0  0  0  0  0  0  0  0  0  0  0
   59.2517   37.1937   13.2850 H   0  0  0  0  0  0  0  0  0  0  0  0
   59.0115   39.5561   14.0731 H   0  0  0  0  0  0  0  0  0  0  0  0
   58.9975   40.1143   12.3974 H   0  0  0  0  0  0  0  0  0  0  0  0
   61.2653   39.1165   12.0459 H   0  0  0  0  0  0  0  0  0  0  0  0
   61.2794   38.5583   13.7217 H   0  0  0  0  0  0  0  0  0  0  0  0
   61.0382   40.9209   14.5106 H   0  0  0  0  0  0  0  0  0  0  0  0
   61.0241   41.4790   12.8349 H   0  0  0  0  0  0  0  0  0  0  0  0
   63.2919   40.4812   12.4834 H   0  0  0  0  0  0  0  0  0  0  0  0
   63.3060   39.9231   14.1592 H   0  0  0  0  0  0  0  0  0  0  0  0
   63.0648   42.2856   14.9481 H   0  0  0  0  0  0  0  0  0  0  0  0
   63.0507   42.8438   13.2724 H   0  0  0  0  0  0  0  0  0  0  0  0
   65.3185   41.8460   12.9209 H   0  0  0  0  0  0  0  0  0  0  0  0
   65.3326   41.2878   14.5967 H   0  0  0  0  0  0  0  0  0  0  0  0
   65.0914   43.6504   15.3856 H   0  0  0  0  0  0  0  0  0  0  0  0
   65.0773   44.2085   13.7099 H   0  0  0  0  0  0  0  0  0  0  0  0
   67.3451   43.2107   13.3584 H   0  0  0  0  0  0  0  0  0  0  0  0
   67.3592   42.6526   15.0342 H   0  0  0  0  0  0  0  0  0  0  0  0
   67.1180   45.0151   15.8231 H   0  0  0  0  0  0  0  0  0  0  0  0
   67.1039   45.5733   14.1474 H   0  0  0  0  0  0  0  0  0  0  0  0
   69.3717   44.5755   13.7960 H   0  0  0  0  0  0  0  0  0  0  0  0
   69.3858   44.0173   15.4717 H   0  0  0  0  0  0  0  0  0  0  0  0
   69.1434   46.3805   16.2601 H   0  0  0  0  0  0  0  0  0  0  0  0
   69.1316   46.9378   14.5841 H   0  0  0  0  0  0  0  0  0  0  0  0
   71.3995   45.9389   14.2359 H   0  0  0  0  0  0  0  0  0  0  0  0
   71.4113   45.3816   15.9120 H   0  0  0  0  0  0  0  0  0  0  0  0
   71.1700   47.7446   16.6995 H   0  0  0  0  0  0  0  0  0  0  0  0
   71.1582   48.3019   15.0235 H   0  0  0  0  0  0  0  0  0  0  0  0
   73.4261   47.3030   14.6754 H   0  0  0  0  0  0  0  0  0  0  0  0
   73.4379   46.7457   16.3514 H   0  0  0  0  0  0  0  0  0  0  0  0
   73.1968   49.1087   17.1389 H   0  0  0  0  0  0  0  0  0  0  0  0
   73.1850   49.6661   15.4629 H   0  0  0  0  0  0  0  0  0  0  0  0
   75.4530   48.6673   15.1148 H   0  0  0  0  0  0  0  0  0  0  0  0
   75.4647   48.1099   16.7909 H   0  0  0  0  0  0  0  0  0  0  0  0
   75.2226   50.4737   17.5779 H   0  0  0  0  0  0  0  0  0  0  0  0
   75.2131   51.0302   15.9016 H   0  0  0  0  0  0  0  0  0  0  0  0
   77.4813   50.0301   15.5567 H   0  0  0  0  0  0  0  0  0  0  0  0
   77.4907   49.4735   17.2331 H   0  0  0  0  0  0  0  0  0  0  0  0
   77.2513   51.8373   18.0191 H   0  0  0  0  0  0  0  0  0  0  0  0
   77.2418   52.3937   16.3431 H   0  0  0  0  0  0  0  0  0  0  0  0
   79.5130   51.3932   15.9993 H   0  0  0  0  0  0  0  0  0  0  0  0
   79.5223   50.8393   17.6755 H   0  0  0  0  0  0  0  0  0  0  0  0
   79.2820   53.2041   18.4590 H   0  0  0  0  0  0  0  0  0  0  0  0
   79.2704   53.7588   16.7832 H   0  0  0  0  0  0  0  0  0  0  0  0
   81.5510   52.7767   16.4417 H   0  0  0  0  0  0  0  0  0  0  0  0
   81.5627   52.2217   18.1183 H   0  0  0  0  0  0  0  0  0  0  0  0
   81.3324   55.1422   17.2219 H   0  0  0  0  0  0  0  0  0  0  0  0
   82.7826   54.3671   17.8897 H   0  0  0  0  0  0  0  0  0  0  0  0
   81.3442   54.5847   18.9063 H   0  0  0  0  0  0  0  0  0  0  0  0
  1  2  1  0  0  0  0
  1 82  1  0  0  0  0
  2  3  1  0  0  0  0
  2 83  1  0  0  0  0
  2 84  1  0  0  0  0
  3  4  1  0  0  0  0
  3 85  1  0  0  0  0
  3 86  1  0  0  0  0
  4  5  1  0  0  0  0
  4 87  1  0  0  0  0
  4 88  1  0  0  0  0
  5  6  1  0  0  0  0
  5 89  1  0  0  0  0
  5 90  1  0  0  0  0
  6  7  1  0  0  0  0
  6 91  1  0  0  0  0
  6 92  1  0  0  0  0
  7  8  1  0  0  0  0
  8  9  1  0  0  0  0
  8 93  1  0  0  0  0
  9 10  1  0  0  0  0
  9 94  1  0  0  0  0
 10 11  1  0  0  0  0
 10 95  1  0  0  0  0
 10 96  1  0  0  0  0
 11 12  1  0  0  0  0
 11 97  1  0  0  0  0
 11 98  1  0  0  0  0
 12 13  1  0  0  0  0
 12 99  1  0  0  0  0
 12100  1  0  0  0  0
 13 14  1  0  0  0  0
 13101  1  0  0  0  0
 13102  1  0  0  0  0
 14 15  1  0  0  0  0
 14103  1  0  0  0  0
 14104  1  0  0  0  0
 15 16  1  0  0  0  0
 15105  1  0  0  0  0
 15106  1  0  0  0  0
 16 17  1  0  0  0  0
 16107  1  0  0  0  0
 16108  1  0  0  0  0
 17 18  1  0  0  0  0
 17109  1  0  0  0  0
 17110  1  0  0  0  0
 18 19  1  0  0  0  0
 18111  1  0  0  0  0
 18112  1  0  0  0  0
 19 20  1  0  0  0  0
 19113  1  0  0  0  0
 19114  1  0  0  0  0
 20 21  1  0  0  0  0
 20115  1  0  0  0  0
 20116  1  0  0  0  0
 21 22  1  0  0  0  0
 21117  1  0  0  0  0
 21118  1  0  0  0  0
 22 23  1  0  0  0  0
 22119  1  0  0  0  0
 22120  1  0  0  0  0
 23 24  1  0  0  0  0
 23121  1  0  0  0  0
 23122  1  0  0  0  0
 24 25  1  0  0  0  0
 24123  1  0  0  0  0
 24124  1  0  0  0  0
 25 26  1  0  0  0  0
 25125  1  0  0  0  0
 25126  1  0  0  0  0
 26 27  1  0  0  0  0
 26127  1  0  0  0  0
 26128  1  0  0  0  0
 27 28  1  0  0  0  0
 27129  1  0  0  0  0
 27130  1  0  0  0  0
 28 29  1  0  0  0  0
 28131  1  0  0  0  0
 28132  1  0  0  0  0
 29 30  1  0  0  0  0
 29133  1  0  0  0  0
 29134  1  0  0  0  0
 30 31  1  0  0  0  0
 30135  1  0  0  0  0
 30136  1  0  0  0  0
 31 32  1  0  0  0  0
 31137  1  0  0  0  0
 31138  1  0  0  0  0
 32 33  1  0  0  0  0
 32139  1  0  0  0  0
 32140  1  0  0  0  0
 33 34  1  0  0  0  0
 33141  1  0  0  0  0
 33142  1  0  0  0  0
 34 35  1  0  0  0  0
 34143  1  0  0  0  0
 34144  1  0  0  0  0
 35 36  1  0  0  0  0
 35145  1  0  0  0  0
 35146  1  0  0  0  0
 36 37  1  0  0  0  0
 36147  1  0  0  0  0
 36148  1  0  0  0  0
 37 38  1  0  0  0  0
 37149  1  0  0  0  0
 37150  1  0  0  0  0
 38 39  1  0  0  0  0
 38151  1  0  0  0  0
 38152  1  0  0  0  0
 39 40  1  0  0  0  0
 39153  1  0  0  0  0
 39154  1  0  0  0  0
 40 41  1  0  0  0  0
 40155  1  0  0  0  0
 40156  1  0  0  0  0
 41 42  1  0  0  0  0
 41157  1  0  0  0  0
 41158  1  0  0  0  0
 42 43  1  0  0  0  0
 42159  1  0  0  0  0
 42160  1  0  0  0  0
 43 44  1  0  0  0  0
 43161  1  0  0  0  0
 43162  1  0  0  0  0
 44 45  1  0  0  0  0
 44163  1  0  0  0  0
 44164  1  0  0  0  0
 45 46  1  0  0  0  0
 45165  1  0  0  0  0
 45166  1  0  0  0  0
 46 47  1  0  0  0  0
 46167  1  0  0  0  0
 46168  1  0  0  0  0
 47 48  1  0  0  0  0
 47169  1  0  0  0  0
 47170  1  0  0  0  0
 48 49  1  0  0  0  0
 48171  1  0  0  0  0
 48172  1  0  0  0  0
 49 50  1  0  0  0  0
 49173  1  0  0  0  0
 49174  1  0  0  0  0
 50 51  1  0  0  0  0
 50175  1  0  0  0  0
 50176  1  0  0  0  0
 51 52  1  0  0  0  0
 51177  1  0  0  0  0
 51178  1  0  0  0  0
 52 53  1  0  0  0  0
 52179  1  0  0  0  0
 52180  1  0  0  0  0
 53 54  1  0  0  0  0
 53181  1  0  0  0  0
 53182  1  0  0  0  0
 54 55  1  0  0  0  0
 54183  1  0  0  0  0
 54184  1  0  0  0  0
 55 56  1  0  0  0  0
 55185  1  0  0  0  0
 55186  1  0  0  0  0
 56 57  1  0  0  0  0
 56187  1  0  0  0  0
 56188  1  0  0  0  0
 57 58  1  0  0  0  0
 57189  1  0  0  0  0
 57190  1  0  0  0  0
 58 59  1  0  0  0  0
 58191  1  0  0  0  0
 58192  1  0  0  0  0
 59 60  1  0  0  0  0
 59193  1  0  0  0  0
 59194  1  0  0  0  0
 60 61  1  0  0  0  0
 60195  1  0  0  0  0
 60196  1  0  0  0  0
 61 62  1  0  0  0  0
 61197  1  0  0  0  0
 61198  1  0  0  0  0
 62 63  1  0  0  0  0
 62199  1  0  0  0  0
 62200  1  0  0  0  0
 63 64  1  0  0  0  0
 63201  1  0  0  0  0
 63202  1  0  0  0  0
 64 65  1  0  0  0  0
 64203  1  0  0  0  0
 64204  1  0  0  0  0
 65 66  1  0  0  0  0
 65205  1  0  0  0  0
 65206  1  0  0  0  0
 66 67  1  0  0  0  0
 66207  1  0  0  0  0
 66208  1  0  0  0  0
 67 68  1  0  0  0  0
 67209  1  0  0  0  0
 67210  1  0  0  0  0
 68 69  1  0  0  0  0
 68211  1  0  0  0  0
 68212  1  0  0  0  0
 69 70  1  0  0  0  0
 69213  1  0  0  0  0
 69214  1  0  0  0  0
 70 71  1  0  0  0  0
 70215  1  0  0  0  0
 70216  1  0  0  0  0
 71 72  1  0  0  0  0
 71217  1  0  0  0  0
 71218  1  0  0  0  0
 72 73  1  0  0  0  0
 72219  1  0  0  0  0
 72220  1  0  0  0  0
 73 74  1  0  0  0  0
 73221  1  0  0  0  0
 73222  1  0  0  0  0
 74 75  1  0  0  0  0
 74223  1  0  0  0  0
 74224  1  0  0  0  0
 75 76  1  0  0  0  0
 75225  1  0  0  0  0
 75226  1  0  0  0  0
 76 77  1  0  0  0  0
 76227  1  0  0  0  0
 76228  1  0  0  0  0
 77 78  1  0  0  0  0
 77229  1  0  0  0  0
 77230  1  0  0  0  0
 78 79  1  0  0  0  0
 78231  1  0  0  0  0
 78232  1  0  0  0  0
 79 80  1  0  0  0  0
 79233  1  0  0  0  0
 79234  1  0  0  0  0
 80 81  1  0  0  0  0
 80235  1  0  0  0  0
 80236  1  0  0  0  0
 81237  1  0  0  0  0
 81238  1  0  0  0  0
 81239  1  0  0  0  0
M  END
$$$$
