
 OpenBabel04232216443D

 97 97  0  0  0  0  0  0  0  0999 V2000
   10.2621   -1.1766    4.9268 C   0  0  0  0  0  0  0  0  0  0  0  0
   11.9173   -1.2871    6.2893 C   0  0  0  0  0  0  0  0  0  0  0  0
    9.9965   -0.9324    5.2556 C   0  0  0  0  0  0  0  0  0  0  0  0
    7.6397   -0.3823    4.5501 C   0  0  0  0  0  0  0  0  0  0  0  0
    5.3957    0.0897    3.5573 C   0  0  0  0  0  0  0  0  0  0  0  0
    3.4041    0.6430    2.3841 C   0  0  0  0  0  0  0  0  0  0  0  0
    1.2240    1.0055    1.7986 C   0  0  0  0  0  0  0  0  0  0  0  0
   -0.6878    0.4324    1.0989 C   0  0  0  0  0  0  0  0  0  0  0  0
   -1.7431   -0.1323    2.1501 C   0  0  0  0  0  0  0  0  0  0  0  0
   -3.0052   -0.9954    1.7658 C   0  0  0  0  0  0  0  0  0  0  0  0
   -3.5400   -1.6765    3.0410 C   0  0  0  0  0  0  0  0  0  0  0  0
   -4.7236   -2.5836    2.7396 C   0  0  0  0  0  0  0  0  0  0  0  0
   -5.2183   -3.2545    4.0128 C   0  0  0  0  0  0  0  0  0  0  0  0
   -6.3947   -4.1552    3.7033 C   0  0  0  0  0  0  0  0  0  0  0  0
    9.0375   -1.0496    3.3599 C   0  0  0  0  0  0  0  0  0  0  0  0
    7.7173   -1.6989    2.6962 C   0  0  0  0  0  0  0  0  0  0  0  0
    7.8672   -3.0830    2.8134 C   0  0  0  0  0  0  0  0  0  0  0  0
    7.5044   -3.5106    4.0273 C   0  0  0  0  0  0  0  0  0  0  0  0
    8.4644   -3.9247    5.0586 C   0  0  0  0  0  0  0  0  0  0  0  0
    9.7842   -3.8308    5.4199 C   0  0  0  0  0  0  0  0  0  0  0  0
   11.2109   -3.6909    4.8056 C   0  0  0  0  0  0  0  0  0  0  0  0
   12.2582   -3.8993    5.6037 C   0  0  0  0  0  0  0  0  0  0  0  0
   13.6298   -3.6428    5.1715 C   0  0  0  0  0  0  0  0  0  0  0  0
   14.5125   -4.2030    5.9803 C   0  0  0  0  0  0  0  0  0  0  0  0
   15.9151   -4.0430    5.9463 C   0  0  0  0  0  0  0  0  0  0  0  0
   16.4162   -4.6555    6.9971 C   0  0  0  0  0  0  0  0  0  0  0  0
   17.7710   -4.7078    7.1332 C   0  0  0  0  0  0  0  0  0  0  0  0
   18.1470   -5.3879    8.2151 C   0  0  0  0  0  0  0  0  0  0  0  0
   19.5135   -5.3503    7.8954 C   0  0  0  0  0  0  0  0  0  0  0  0
   20.3397   -5.8985    8.7341 C   0  0  0  0  0  0  0  0  0  0  0  0
   21.7040   -5.4973    8.4391 C   0  0  0  0  0  0  0  0  0  0  0  0
   22.6830   -6.0931    9.0995 C   0  0  0  0  0  0  0  0  0  0  0  0
   24.1036   -5.7520    9.0163 C   0  0  0  0  0  0  0  0  0  0  0  0
   25.0560   -6.4966    9.6202 C   0  0  0  0  0  0  0  0  0  0  0  0
   26.4688   -5.8067    9.3942 C   0  0  0  0  0  0  0  0  0  0  0  0
   27.4614   -5.7628   10.2668 C   0  0  0  0  0  0  0  0  0  0  0  0
   26.5154   -5.4931   11.6387 C   0  0  0  0  0  0  0  0  0  0  0  0
   24.6655   -5.0765   11.6605 C   0  0  0  0  0  0  0  0  0  0  0  0
   22.3740   -4.0997   11.0046 S   0  0  0  0  0  0  0  0  0  0  0  0
   19.9681   -3.3527   10.1839 C   0  0  0  0  0  0  0  0  0  0  0  0
   18.1489   -3.0673    9.1930 C   0  0  0  0  0  0  0  0  0  0  0  0
   15.9930   -2.3182    8.2985 C   0  0  0  0  0  0  0  0  0  0  0  0
   14.1829   -1.9201    7.1742 C   0  0  0  0  0  0  0  0  0  0  0  0
    8.8148   -1.8354    4.9733 H   0  0  0  0  0  0  0  0  0  0  0  0
    9.8321   -2.3296    4.1677 H   0  0  0  0  0  0  0  0  0  0  0  0
    9.2935    0.1673    4.6655 H   0  0  0  0  0  0  0  0  0  0  0  0
    6.5910   -1.1979    4.6957 H   0  0  0  0  0  0  0  0  0  0  0  0
    7.1570    0.1458    3.3993 H   0  0  0  0  0  0  0  0  0  0  0  0
    4.2023    0.2984    4.2143 H   0  0  0  0  0  0  0  0  0  0  0  0
    4.3834   -0.9024    3.4202 H   0  0  0  0  0  0  0  0  0  0  0  0
    2.5782   -0.2773    1.6669 H   0  0  0  0  0  0  0  0  0  0  0  0
    3.1097    1.5591    1.5280 H   0  0  0  0  0  0  0  0  0  0  0  0
    0.8835    1.6207    0.5831 H   0  0  0  0  0  0  0  0  0  0  0  0
    0.3443    2.0108    2.0981 H   0  0  0  0  0  0  0  0  0  0  0  0
   -0.8297   -0.2263    0.1702 H   0  0  0  0  0  0  0  0  0  0  0  0
   -1.6624    1.1866    0.5668 H   0  0  0  0  0  0  0  0  0  0  0  0
   -2.1341    0.6569    2.8086 H   0  0  0  0  0  0  0  0  0  0  0  0
   -1.0631   -0.7821    2.6487 H   0  0  0  0  0  0  0  0  0  0  0  0
   -2.7434   -1.7770    1.0456 H   0  0  0  0  0  0  0  0  0  0  0  0
   -3.8336   -0.4125    1.3281 H   0  0  0  0  0  0  0  0  0  0  0  0
   -3.8439   -0.9172    3.7728 H   0  0  0  0  0  0  0  0  0  0  0  0
   -2.7382   -2.2708    3.4965 H   0  0  0  0  0  0  0  0  0  0  0  0
   -4.4268   -3.3490    2.0130 H   0  0  0  0  0  0  0  0  0  0  0  0
   -5.5353   -1.9972    2.2940 H   0  0  0  0  0  0  0  0  0  0  0  0
   -5.5202   -2.4938    4.7415 H   0  0  0  0  0  0  0  0  0  0  0  0
   -4.4113   -3.8457    4.4601 H   0  0  0  0  0  0  0  0  0  0  0  0
   -7.2155   -3.5750    3.2704 H   0  0  0  0  0  0  0  0  0  0  0  0
   -6.7516   -4.6378    4.6162 H   0  0  0  0  0  0  0  0  0  0  0  0
   -6.1034   -4.9308    2.9883 H   0  0  0  0  0  0  0  0  0  0  0  0
    8.3892   -0.3179    2.4329 H   0  0  0  0  0  0  0  0  0  0  0  0
    6.4501   -1.9770    2.8809 H   0  0  0  0  0  0  0  0  0  0  0  0
    8.7276   -3.0483    2.1716 H   0  0  0  0  0  0  0  0  0  0  0  0
    6.6353   -2.9211    4.5317 H   0  0  0  0  0  0  0  0  0  0  0  0
    7.9284   -3.1420    5.6696 H   0  0  0  0  0  0  0  0  0  0  0  0
    9.6309   -2.8778    5.9468 H   0  0  0  0  0  0  0  0  0  0  0  0
   11.5992   -2.9632    4.0314 H   0  0  0  0  0  0  0  0  0  0  0  0
   11.9952   -3.9962    6.6708 H   0  0  0  0  0  0  0  0  0  0  0  0
   13.9740   -2.8466    4.4796 H   0  0  0  0  0  0  0  0  0  0  0  0
   14.0578   -4.4376    6.9623 H   0  0  0  0  0  0  0  0  0  0  0  0
   16.5167   -3.3308    5.3552 H   0  0  0  0  0  0  0  0  0  0  0  0
   15.8253   -4.8559    7.9057 H   0  0  0  0  0  0  0  0  0  0  0  0
   18.4706   -3.9977    6.5375 H   0  0  0  0  0  0  0  0  0  0  0  0
   17.6273   -5.5911    9.2457 H   0  0  0  0  0  0  0  0  0  0  0  0
   19.9602   -4.4767    7.3486 H   0  0  0  0  0  0  0  0  0  0  0  0
   19.8517   -6.0834    9.7247 H   0  0  0  0  0  0  0  0  0  0  0  0
   22.0495   -4.5289    8.0515 H   0  0  0  0  0  0  0  0  0  0  0  0
   22.2567   -6.6135    9.9686 H   0  0  0  0  0  0  0  0  0  0  0  0
   24.5975   -4.8422    8.6010 H   0  0  0  0  0  0  0  0  0  0  0  0
   24.6891   -7.0774   10.5447 H   0  0  0  0  0  0  0  0  0  0  0  0
   25.9876   -5.1683   10.0701 H   0  0  0  0  0  0  0  0  0  0  0  0
   27.5445   -6.7894   10.6149 H   0  0  0  0  0  0  0  0  0  0  0  0
   27.9209   -6.1126   11.9761 H   0  0  0  0  0  0  0  0  0  0  0  0
   25.4757   -6.1149   12.5169 H   0  0  0  0  0  0  0  0  0  0  0  0
   20.8926   -4.5099   10.2992 H   0  0  0  0  0  0  0  0  0  0  0  0
   19.1854   -3.8970    9.1984 H   0  0  0  0  0  0  0  0  0  0  0  0
   17.2094   -2.8854    8.0043 H   0  0  0  0  0  0  0  0  0  0  0  0
   14.7644   -2.0232    6.2331 H   0  0  0  0  0  0  0  0  0  0  0  0
  1  2  1  0  0  0  0
  1 44  1  0  0  0  0
  1 45  1  0  0  0  0
  1 46  1  0  0  0  0
  2  3  2  3  0  0  0
  2 43  1  0  0  0  0
  3  4  1  0  0  0  0
  3 15  1  0  0  0  0
  4  5  1  0  0  0  0
  4 47  1  0  0  0  0
  4 48  1  0  0  0  0
  5  6  1  0  0  0  0
  5 49  1  0  0  0  0
  5 50  1  0  0  0  0
  6  7  1  0  0  0  0
  6 51  1  0  0  0  0
  6 52  1  0  0  0  0
  7  8  1  0  0  0  0
  7 53  1  0  0  0  0
  7 54  1  0  0  0  0
  8  9  1  0  0  0  0
  8 55  1  0  0  0  0
  8 56  1  0  0  0  0
  9 10  1  0  0  0  0
  9 57  1  0  0  0  0
  9 58  1  0  0  0  0
 10 11  1  0  0  0  0
 10 59  1  0  0  0  0
 10 60  1  0  0  0  0
 11 12  1  0  0  0  0
 11 61  1  0  0  0  0
 11 62  1  0  0  0  0
 12 13  1  0  0  0  0
 12 63  1  0  0  0  0
 12 64  1  0  0  0  0
 13 14  1  0  0  0  0
 13 65  1  0  0  0  0
 13 66  1  0  0  0  0
 14 67  1  0  0  0  0
 14 68  1  0  0  0  0
 14 69  1  0  0  0  0
 15 16  2  3  0  0  0
 15 70  1  0  0  0  0
 16 17  1  0  0  0  0
 16 71  1  0  0  0  0
 17 18  2  3  0  0  0
 17 72  1  0  0  0  0
 18 19  1  0  0  0  0
 18 73  1  0  0  0  0
 19 20  2  3  0  0  0
 19 74  1  0  0  0  0
 20 21  1  0  0  0  0
 20 75  1  0  0  0  0
 21 22  2  3  0  0  0
 21 76  1  0  0  0  0
 22 23  1  0  0  0  0
 22 77  1  0  0  0  0
 23 24  2  3  0  0  0
 23 78  1  0  0  0  0
 24 25  1  0  0  0  0
 24 79  1  0  0  0  0
 25 26  2  3  0  0  0
 25 80  1  0  0  0  0
 26 27  1  0  0  0  0
 26 81  1  0  0  0  0
 27 28  2  3  0  0  0
 27 82  1  0  0  0  0
 28 29  1  0  0  0  0
 28 83  1  0  0  0  0
 29 30  2  3  0  0  0
 29 84  1  0  0  0  0
 30 31  1  0  0  0  0
 30 85  1  0  0  0  0
 31 32  2  3  0  0  0
 31 86  1  0  0  0  0
 32 33  1  0  0  0  0
 32 87  1  0  0  0  0
 33 34  2  3  0  0  0
 33 88  1  0  0  0  0
 34 35  1  0  0  0  0
 34 89  1  0  0  0  0
 35 36  2  3  0  0  0
 35 90  1  0  0  0  0
 36 37  1  0  0  0  0
 36 91  1  0  0  0  0
 37 38  2  3  0  0  0
 37 92  1  0  0  0  0
 38 39  1  0  0  0  0
 38 93  1  0  0  0  0
 39 40  1  0  0  0  0
 40 41  2  3  0  0  0
 40 94  1  0  0  0  0
 41 42  1  0  0  0  0
 41 95  1  0  0  0  0
 42 43  2  3  0  0  0
 42 96  1  0  0  0  0
 43 97  1  0  0  0  0
M  END
$$$$
