
 OpenBabel04232216473D

 51 52  0  0  1  0  0  0  0  0999 V2000
    9.0670    1.7832   -1.1344 C   0  0  0  0  0  0  0  0  0  0  0  0
    9.1764    0.2986   -0.8960 C   0  0  0  0  0  0  0  0  0  0  0  0
   10.3890   -0.0516   -0.1578 C   0  0  0  0  0  0  0  0  0  0  0  0
   10.3036   -0.1407    1.1861 C   0  0  0  0  0  0  0  0  0  0  0  0
   10.1462   -1.5049    1.7241 C   0  0  0  0  0  0  0  0  0  0  0  0
   11.1164   -2.5543    1.2331 C   0  0  0  0  0  0  0  0  0  0  0  0
    8.9286   -1.7179    2.2793 C   0  0  0  0  0  0  0  0  0  0  0  0
    8.1008   -2.8948    1.9956 C   0  0  0  0  0  0  0  0  0  0  0  0
    7.3654   -2.6878    0.8741 C   0  0  0  0  0  0  0  0  0  0  0  0
    7.9238   -3.0095   -0.4258 C   0  0  0  0  0  0  0  0  0  0  0  0
    8.3225   -4.4383   -0.7406 C   0  0  0  0  0  0  0  0  0  0  0  0
    9.3411   -4.6493   -1.4067 O   0  0  0  0  0  0  0  0  0  0  0  0
    7.4653   -5.6323   -0.3144 C   0  0  3  0  0  3  0  0  0  0  0  0
    6.6068   -5.7146    0.8531 N   0  0  0  0  0  0  0  0  0  0  0  0
    5.3041   -6.3547    0.6803 C   0  0  0  0  0  0  0  0  0  0  0  0
    4.3015   -5.4486   -0.0497 C   0  0  0  0  0  0  0  0  0  0  0  0
    3.7391   -5.9699   -1.3813 C   0  0  0  0  0  0  0  0  0  0  0  0
    4.6970   -6.6350   -2.3678 C   0  0  0  0  0  0  0  0  0  0  0  0
    5.9115   -5.7849   -2.7737 C   0  0  0  0  0  0  0  0  0  0  0  0
    7.2229   -6.5652   -2.6528 C   0  0  0  0  0  0  0  0  0  0  0  0
    7.6480   -6.8422   -1.1985 C   0  0  0  0  0  0  0  0  0  0  0  0
    8.3162   -2.0718   -1.3283 C   0  0  0  0  0  0  0  0  0  0  0  0
    8.2536   -0.5987   -1.3282 C   0  0  0  0  0  0  0  0  0  0  0  0
   10.0396    2.2751   -1.0012 H   0  0  0  0  0  0  0  0  0  0  0  0
    8.3702    2.2390   -0.4268 H   0  0  0  0  0  0  0  0  0  0  0  0
    8.7444    2.0018   -2.1591 H   0  0  0  0  0  0  0  0  0  0  0  0
   11.0830   -0.6637   -0.7312 H   0  0  0  0  0  0  0  0  0  0  0  0
    9.6167    0.5609    1.6680 H   0  0  0  0  0  0  0  0  0  0  0  0
   12.1430   -2.2423    1.4568 H   0  0  0  0  0  0  0  0  0  0  0  0
   11.0446   -2.7169    0.1518 H   0  0  0  0  0  0  0  0  0  0  0  0
   10.9668   -3.5212    1.7205 H   0  0  0  0  0  0  0  0  0  0  0  0
    8.2967   -0.8664    2.5413 H   0  0  0  0  0  0  0  0  0  0  0  0
    8.7916   -3.7456    1.9759 H   0  0  0  0  0  0  0  0  0  0  0  0
    6.2884   -2.7689    0.9333 H   0  0  0  0  0  0  0  0  0  0  0  0
    6.5328   -4.8790    1.4199 H   0  0  0  0  0  0  0  0  0  0  0  0
    4.9142   -6.5235    1.6952 H   0  0  0  0  0  0  0  0  0  0  0  0
    5.3553   -7.3590    0.2521 H   0  0  0  0  0  0  0  0  0  0  0  0
    4.7263   -4.4512   -0.2108 H   0  0  0  0  0  0  0  0  0  0  0  0
    3.4454   -5.2804    0.6197 H   0  0  0  0  0  0  0  0  0  0  0  0
    3.2373   -5.1300   -1.8810 H   0  0  0  0  0  0  0  0  0  0  0  0
    2.9494   -6.6972   -1.1571 H   0  0  0  0  0  0  0  0  0  0  0  0
    4.1336   -6.8531   -3.2821 H   0  0  0  0  0  0  0  0  0  0  0  0
    5.0088   -7.6050   -1.9703 H   0  0  0  0  0  0  0  0  0  0  0  0
    5.9471   -4.8479   -2.2262 H   0  0  0  0  0  0  0  0  0  0  0  0
    5.7979   -5.4833   -3.8285 H   0  0  0  0  0  0  0  0  0  0  0  0
    8.0181   -5.9972   -3.1491 H   0  0  0  0  0  0  0  0  0  0  0  0
    7.1544   -7.5157   -3.1908 H   0  0  0  0  0  0  0  0  0  0  0  0
    8.6959   -7.1684   -1.1734 H   0  0  0  0  0  0  0  0  0  0  0  0
    7.0927   -7.7107   -0.8223 H   0  0  0  0  0  0  0  0  0  0  0  0
    8.7426   -2.4302   -2.2699 H   0  0  0  0  0  0  0  0  0  0  0  0
    7.3970   -0.2171   -1.8879 H   0  0  0  0  0  0  0  0  0  0  0  0
  1  2  1  0  0  0  0
  1 24  1  0  0  0  0
  1 25  1  0  0  0  0
  1 26  1  0  0  0  0
  2  3  1  0  0  0  0
  2 23  2  0  0  0  0
  3  4  2  0  0  0  0
  3 27  1  0  0  0  0
  4  5  1  0  0  0  0
  4 28  1  0  0  0  0
  5  6  1  0  0  0  0
  5  7  2  0  0  0  0
  6 29  1  0  0  0  0
  6 30  1  0  0  0  0
  6 31  1  0  0  0  0
  7  8  1  0  0  0  0
  7 32  1  0  0  0  0
  8  9  2  0  0  0  0
  8 33  1  0  0  0  0
  9 10  1  0  0  0  0
  9 34  1  0  0  0  0
 10 11  1  0  0  0  0
 10 22  2  0  0  0  0
 11 12  2  0  0  0  0
 11 13  1  0  0  0  0
 13 14  1  0  0  0  0
 13 21  1  0  0  0  0
 14 15  1  0  0  0  0
 14 35  1  0  0  0  0
 15 16  1  0  0  0  0
 15 36  1  0  0  0  0
 15 37  1  0  0  0  0
 16 17  1  0  0  0  0
 16 38  1  0  0  0  0
 16 39  1  0  0  0  0
 17 18  1  0  0  0  0
 17 40  1  0  0  0  0
 17 41  1  0  0  0  0
 18 19  1  0  0  0  0
 18 42  1  0  0  0  0
 18 43  1  0  0  0  0
 19 20  1  0  0  0  0
 19 44  1  0  0  0  0
 19 45  1  0  0  0  0
 20 21  1  0  0  0  0
 20 46  1  0  0  0  0
 20 47  1  0  0  0  0
 21 48  1  0  0  0  0
 21 49  1  0  0  0  0
 22 23  1  0  0  0  0
 22 50  1  0  0  0  0
 23 51  1  0  0  0  0
M  END
$$$$
