
 OpenBabel04232216563D

194194  0  0  1  0  0  0  0  0999 V2000
    4.6041    0.9278    1.1106 C   0  0  0  0  0  0  0  0  0  0  0  0
    4.2389   -0.3226    1.7650 N   0  0  0  0  0  0  0  0  0  0  0  0
    3.2159   -0.0787    2.8170 C   0  0  0  0  0  0  0  0  0  0  0  0
    2.5173   -1.3610    2.3410 C   0  0  0  0  0  0  0  0  0  0  0  0
    3.2087   -1.0566    0.9868 C   0  0  3  0  0  0  0  0  0  0  0  0
    3.7809   -2.2682    0.2593 C   0  0  0  0  0  0  0  0  0  0  0  0
    2.6541   -3.2419   -0.0752 C   0  0  0  0  0  0  0  0  0  0  0  0
    3.1848   -4.4643   -0.8059 C   0  0  0  0  0  0  0  0  0  0  0  0
    2.0470   -5.4320   -1.0925 C   0  0  0  0  0  0  0  0  0  0  0  0
    2.5745   -6.6560   -1.8236 C   0  0  0  0  0  0  0  0  0  0  0  0
    1.4391   -7.6214   -2.1160 C   0  0  0  0  0  0  0  0  0  0  0  0
    1.9737   -8.8406   -2.8457 C   0  0  0  0  0  0  0  0  0  0  0  0
    0.8408   -9.8063   -3.1400 C   0  0  0  0  0  0  0  0  0  0  0  0
    1.3776  -11.0238   -3.8692 C   0  0  0  0  0  0  0  0  0  0  0  0
    0.2452  -11.9892   -4.1635 C   0  0  0  0  0  0  0  0  0  0  0  0
    0.7816  -13.2062   -4.8924 C   0  0  0  0  0  0  0  0  0  0  0  0
   -0.3512  -14.1711   -5.1862 C   0  0  0  0  0  0  0  0  0  0  0  0
    0.1856  -15.3890   -5.9135 C   0  0  0  0  0  0  0  0  0  0  0  0
   -0.9471  -16.3538   -6.2073 C   0  0  0  0  0  0  0  0  0  0  0  0
   -0.4102  -17.5716   -6.9344 C   0  0  0  0  0  0  0  0  0  0  0  0
   -1.5429  -18.5364   -7.2283 C   0  0  0  0  0  0  0  0  0  0  0  0
   -1.0059  -19.7542   -7.9554 C   0  0  0  0  0  0  0  0  0  0  0  0
   -2.1387  -20.7189   -8.2492 C   0  0  0  0  0  0  0  0  0  0  0  0
   -1.6018  -21.9366   -8.9764 C   0  0  0  0  0  0  0  0  0  0  0  0
   -2.7346  -22.9014   -9.2700 C   0  0  0  0  0  0  0  0  0  0  0  0
   -2.1976  -24.1190   -9.9975 C   0  0  0  0  0  0  0  0  0  0  0  0
   -3.3307  -25.0841  -10.2909 C   0  0  0  0  0  0  0  0  0  0  0  0
   -2.7938  -26.3025  -11.0167 C   0  0  0  0  0  0  0  0  0  0  0  0
   -3.9239  -27.2706  -11.3086 C   0  0  0  0  0  0  0  0  0  0  0  0
   -3.3889  -28.4873  -12.0342 C   0  0  0  0  0  0  0  0  0  0  0  0
   -4.5222  -29.4526  -12.3275 C   0  0  0  0  0  0  0  0  0  0  0  0
   -3.9851  -30.6715  -13.0531 C   0  0  0  0  0  0  0  0  0  0  0  0
   -5.1187  -31.6343  -13.3462 C   0  0  0  0  0  0  0  0  0  0  0  0
   -4.5787  -32.8567  -14.0719 C   0  0  0  0  0  0  0  0  0  0  0  0
   -5.7112  -33.8212  -14.3625 C   0  0  0  0  0  0  0  0  0  0  0  0
   -5.1738  -35.0410  -15.0855 C   0  0  0  0  0  0  0  0  0  0  0  0
   -6.3060  -36.0071  -15.3764 C   0  0  0  0  0  0  0  0  0  0  0  0
   -5.7681  -37.2274  -16.0987 C   0  0  0  0  0  0  0  0  0  0  0  0
   -6.9004  -38.1937  -16.3906 C   0  0  0  0  0  0  0  0  0  0  0  0
   -6.3614  -39.4154  -17.1130 C   0  0  0  0  0  0  0  0  0  0  0  0
   -7.4922  -40.3797  -17.4053 C   0  0  0  0  0  0  0  0  0  0  0  0
   -6.9554  -41.6008  -18.1254 C   0  0  0  0  0  0  0  0  0  0  0  0
   -8.0893  -42.5658  -18.4186 C   0  0  0  0  0  0  0  0  0  0  0  0
   -7.5497  -43.7868  -19.1364 C   0  0  0  0  0  0  0  0  0  0  0  0
   -8.6741  -44.7383  -19.4276 C   0  0  0  0  0  0  0  0  0  0  0  0
   -8.1258  -45.9535  -20.1420 C   0  0  0  0  0  0  0  0  0  0  0  0
   -9.2744  -46.9326  -20.4448 C   0  0  0  0  0  0  0  0  0  0  0  0
   -8.7366  -48.1483  -21.1598 C   0  0  0  0  0  0  0  0  0  0  0  0
   -9.8741  -49.1142  -21.4580 C   0  0  0  0  0  0  0  0  0  0  0  0
   -9.3300  -50.3334  -22.1758 C   0  0  0  0  0  0  0  0  0  0  0  0
  -10.4639  -51.2892  -22.4694 C   0  0  0  0  0  0  0  0  0  0  0  0
   -9.9181  -52.5031  -23.1828 C   0  0  0  0  0  0  0  0  0  0  0  0
  -11.0513  -53.4535  -23.4731 C   0  0  0  0  0  0  0  0  0  0  0  0
  -10.4976  -54.6567  -24.1852 C   0  0  0  0  0  0  0  0  0  0  0  0
  -11.6291  -55.5995  -24.4728 C   0  0  0  0  0  0  0  0  0  0  0  0
  -11.0555  -56.7902  -25.1800 C   0  0  0  0  0  0  0  0  0  0  0  0
  -12.1913  -57.7097  -25.4556 C   0  0  0  0  0  0  0  0  0  0  0  0
  -11.6399  -58.8983  -26.1565 C   0  0  0  0  0  0  0  0  0  0  0  0
  -12.7714  -59.6760  -26.3477 O   0  0  0  0  0  0  0  0  0  0  0  0
  -12.2370  -60.7935  -27.0053 O   0  0  0  0  0  0  0  0  0  0  0  0
  -13.2952  -61.6460  -27.3194 O   0  0  0  0  0  0  0  0  0  0  0  0
  -12.7355  -62.8122  -27.8488 O   0  0  0  0  0  0  0  0  0  0  0  0
  -13.7978  -63.6565  -28.1707 O   0  0  0  0  0  0  0  0  0  0  0  0
  -13.2904  -64.6896  -28.9566 O   0  0  0  0  0  0  0  0  0  0  0  0
  -14.3317  -65.5996  -29.1292 O   0  0  0  0  0  0  0  0  0  0  0  0
  -13.7909  -66.7472  -29.7008 O   0  0  0  0  0  0  0  0  0  0  0  0
  -14.8674  -67.5677  -30.0333 O   0  0  0  0  0  0  0  0  0  0  0  0
  -14.3638  -68.6285  -30.7811 O   0  0  0  0  0  0  0  0  0  0  0  0
  -15.3979  -69.5607  -30.9022 O   0  0  0  0  0  0  0  0  0  0  0  0
  -14.8584  -70.7050  -31.4999 O   0  0  0  0  0  0  0  0  0  0  0  0
  -15.9373  -71.4735  -31.9546 O   0  0  0  0  0  0  0  0  0  0  0  0
  -15.4085  -72.6142  -32.5756 O   0  0  0  0  0  0  0  0  0  0  0  0
  -16.4309  -73.5814  -32.6502 O   0  0  0  0  0  0  0  0  0  0  0  0
  -15.9783  -74.6031  -33.5262 O   0  0  0  0  0  0  0  0  0  0  0  0
  -17.0719  -75.4409  -33.8784 O   0  0  0  0  0  0  0  0  0  0  0  0
  -16.5559  -76.7374  -34.1919 O   0  0  0  0  0  0  0  0  0  0  0  0
  -17.6430  -77.5886  -34.5959 O   0  0  0  0  0  0  0  0  0  0  0  0
  -17.1391  -78.6922  -35.3779 O   0  0  0  0  0  0  0  0  0  0  0  0
  -16.5163  -78.2129  -36.5884 O   0  0  0  0  0  0  0  0  0  0  0  0
    5.3149    1.4722    1.7418 H   0  0  0  0  0  0  0  0  0  0  0  0
    3.7532    1.5897    0.9116 H   0  0  0  0  0  0  0  0  0  0  0  0
    5.1053    0.7272    0.1576 H   0  0  0  0  0  0  0  0  0  0  0  0
    2.5955    0.8177    2.6914 H   0  0  0  0  0  0  0  0  0  0  0  0
    3.5941   -0.1110    3.8419 H   0  0  0  0  0  0  0  0  0  0  0  0
    1.4246   -1.3523    2.3340 H   0  0  0  0  0  0  0  0  0  0  0  0
    2.8685   -2.2709    2.8436 H   0  0  0  0  0  0  0  0  0  0  0  0
    2.5839   -0.4348    0.3254 H   0  0  0  0  0  0  0  0  0  0  0  0
    4.5285   -2.7813    0.8776 H   0  0  0  0  0  0  0  0  0  0  0  0
    4.2856   -1.9490   -0.6608 H   0  0  0  0  0  0  0  0  0  0  0  0
    1.8941   -2.7383   -0.6891 H   0  0  0  0  0  0  0  0  0  0  0  0
    2.1516   -3.5654    0.8416 H   0  0  0  0  0  0  0  0  0  0  0  0
    3.9464   -4.9629   -0.1936 H   0  0  0  0  0  0  0  0  0  0  0  0
    3.6658   -4.1627   -1.7437 H   0  0  0  0  0  0  0  0  0  0  0  0
    1.2801   -4.9386   -1.7028 H   0  0  0  0  0  0  0  0  0  0  0  0
    1.5680   -5.7391   -0.1560 H   0  0  0  0  0  0  0  0  0  0  0  0
    3.3380   -7.1545   -1.2138 H   0  0  0  0  0  0  0  0  0  0  0  0
    3.0550   -6.3526   -2.7617 H   0  0  0  0  0  0  0  0  0  0  0  0
    0.6745   -7.1264   -2.7273 H   0  0  0  0  0  0  0  0  0  0  0  0
    0.9572   -7.9285   -1.1797 H   0  0  0  0  0  0  0  0  0  0  0  0
    2.7375   -9.3369   -2.2348 H   0  0  0  0  0  0  0  0  0  0  0  0
    2.4554   -8.5345   -3.7823 H   0  0  0  0  0  0  0  0  0  0  0  0
    0.0764   -9.3115   -3.7516 H   0  0  0  0  0  0  0  0  0  0  0  0
    0.3586  -10.1141   -2.2040 H   0  0  0  0  0  0  0  0  0  0  0  0
    2.1417  -11.5194   -3.2580 H   0  0  0  0  0  0  0  0  0  0  0  0
    1.8596  -10.7169   -4.8055 H   0  0  0  0  0  0  0  0  0  0  0  0
   -0.5194  -11.4939   -4.7749 H   0  0  0  0  0  0  0  0  0  0  0  0
   -0.2373  -12.2964   -3.2272 H   0  0  0  0  0  0  0  0  0  0  0  0
    1.5458  -13.7017   -4.2809 H   0  0  0  0  0  0  0  0  0  0  0  0
    1.2638  -12.8990   -5.8286 H   0  0  0  0  0  0  0  0  0  0  0  0
   -1.1149  -13.6761   -5.7987 H   0  0  0  0  0  0  0  0  0  0  0  0
   -0.8343  -14.4773   -4.2501 H   0  0  0  0  0  0  0  0  0  0  0  0
    0.9492  -15.8840   -5.3009 H   0  0  0  0  0  0  0  0  0  0  0  0
    0.6687  -15.0829   -6.8496 H   0  0  0  0  0  0  0  0  0  0  0  0
   -1.7107  -15.8588   -6.8199 H   0  0  0  0  0  0  0  0  0  0  0  0
   -1.4302  -16.6598   -5.2711 H   0  0  0  0  0  0  0  0  0  0  0  0
    0.3534  -18.0666   -6.3218 H   0  0  0  0  0  0  0  0  0  0  0  0
    0.0730  -17.2656   -7.8706 H   0  0  0  0  0  0  0  0  0  0  0  0
   -2.3065  -18.0413   -7.8409 H   0  0  0  0  0  0  0  0  0  0  0  0
   -2.0260  -18.8424   -6.2922 H   0  0  0  0  0  0  0  0  0  0  0  0
   -0.2424  -20.2492   -7.3428 H   0  0  0  0  0  0  0  0  0  0  0  0
   -0.5229  -19.4482   -8.8916 H   0  0  0  0  0  0  0  0  0  0  0  0
   -2.9024  -20.2239   -8.8618 H   0  0  0  0  0  0  0  0  0  0  0  0
   -2.6218  -21.0250   -7.3130 H   0  0  0  0  0  0  0  0  0  0  0  0
   -0.8381  -22.4317   -8.3639 H   0  0  0  0  0  0  0  0  0  0  0  0
   -1.1189  -21.6306   -9.9127 H   0  0  0  0  0  0  0  0  0  0  0  0
   -3.4985  -22.4064   -9.8822 H   0  0  0  0  0  0  0  0  0  0  0  0
   -3.2173  -23.2076   -8.3337 H   0  0  0  0  0  0  0  0  0  0  0  0
   -1.4336  -24.6137   -9.3852 H   0  0  0  0  0  0  0  0  0  0  0  0
   -1.7151  -23.8127  -10.9338 H   0  0  0  0  0  0  0  0  0  0  0  0
   -4.0938  -24.5893  -10.9038 H   0  0  0  0  0  0  0  0  0  0  0  0
   -3.8135  -25.3893   -9.3544 H   0  0  0  0  0  0  0  0  0  0  0  0
   -2.0294  -26.7965  -10.4036 H   0  0  0  0  0  0  0  0  0  0  0  0
   -2.3102  -25.9971  -11.9533 H   0  0  0  0  0  0  0  0  0  0  0  0
   -4.6858  -26.7779  -11.9220 H   0  0  0  0  0  0  0  0  0  0  0  0
   -4.4100  -27.5718  -10.3731 H   0  0  0  0  0  0  0  0  0  0  0  0
   -2.6254  -28.9813  -11.4211 H   0  0  0  0  0  0  0  0  0  0  0  0
   -2.9046  -28.1826  -12.9704 H   0  0  0  0  0  0  0  0  0  0  0  0
   -5.2840  -28.9578  -12.9412 H   0  0  0  0  0  0  0  0  0  0  0  0
   -5.0087  -29.7558  -11.3922 H   0  0  0  0  0  0  0  0  0  0  0  0
   -3.2202  -31.1651  -12.4405 H   0  0  0  0  0  0  0  0  0  0  0  0
   -3.5010  -30.3659  -13.9906 H   0  0  0  0  0  0  0  0  0  0  0  0
   -5.8793  -31.1441  -13.9605 H   0  0  0  0  0  0  0  0  0  0  0  0
   -5.6001  -31.9406  -12.4101 H   0  0  0  0  0  0  0  0  0  0  0  0
   -3.8147  -33.3482  -13.4575 H   0  0  0  0  0  0  0  0  0  0  0  0
   -4.0962  -32.5507  -15.0081 H   0  0  0  0  0  0  0  0  0  0  0  0
   -6.4747  -33.3281  -14.9768 H   0  0  0  0  0  0  0  0  0  0  0  0
   -6.1947  -34.1242  -13.4253 H   0  0  0  0  0  0  0  0  0  0  0  0
   -4.4102  -35.5338  -14.4708 H   0  0  0  0  0  0  0  0  0  0  0  0
   -4.6903  -34.7379  -16.0224 H   0  0  0  0  0  0  0  0  0  0  0  0
   -7.0692  -35.5145  -15.9909 H   0  0  0  0  0  0  0  0  0  0  0  0
   -6.7893  -36.3100  -14.4392 H   0  0  0  0  0  0  0  0  0  0  0  0
   -5.0052  -37.7204  -15.4836 H   0  0  0  0  0  0  0  0  0  0  0  0
   -5.2842  -36.9247  -17.0354 H   0  0  0  0  0  0  0  0  0  0  0  0
   -7.6636  -37.7006  -17.0060 H   0  0  0  0  0  0  0  0  0  0  0  0
   -7.3849  -38.4960  -15.4537 H   0  0  0  0  0  0  0  0  0  0  0  0
   -5.5997  -39.9067  -16.4965 H   0  0  0  0  0  0  0  0  0  0  0  0
   -5.8776  -39.1111  -18.0491 H   0  0  0  0  0  0  0  0  0  0  0  0
   -8.2548  -39.8868  -18.0223 H   0  0  0  0  0  0  0  0  0  0  0  0
   -7.9751  -40.6835  -16.4692 H   0  0  0  0  0  0  0  0  0  0  0  0
   -6.1949  -42.0930  -17.5065 H   0  0  0  0  0  0  0  0  0  0  0  0
   -6.4693  -41.2974  -19.0604 H   0  0  0  0  0  0  0  0  0  0  0  0
   -8.8497  -42.0722  -19.0367 H   0  0  0  0  0  0  0  0  0  0  0  0
   -8.5771  -42.8657  -17.4826 H   0  0  0  0  0  0  0  0  0  0  0  0
   -6.7917  -44.2806  -18.5175 H   0  0  0  0  0  0  0  0  0  0  0  0
   -7.0621  -43.4866  -20.0715 H   0  0  0  0  0  0  0  0  0  0  0  0
   -9.4425  -44.2574  -20.0522 H   0  0  0  0  0  0  0  0  0  0  0  0
   -9.1737  -45.0505  -18.4973 H   0  0  0  0  0  0  0  0  0  0  0  0
   -7.3839  -46.4648  -19.5263 H   0  0  0  0  0  0  0  0  0  0  0  0
   -7.6510  -45.6700  -21.0825 H   0  0  0  0  0  0  0  0  0  0  0  0
  -10.0315  -46.4313  -21.0598 H   0  0  0  0  0  0  0  0  0  0  0  0
   -9.7635  -47.2244  -19.5081 H   0  0  0  0  0  0  0  0  0  0  0  0
   -7.9818  -48.6512  -20.5443 H   0  0  0  0  0  0  0  0  0  0  0  0
   -8.2496  -47.8563  -22.0973 H   0  0  0  0  0  0  0  0  0  0  0  0
  -10.6306  -48.6226  -22.0794 H   0  0  0  0  0  0  0  0  0  0  0  0
  -10.3627  -49.4178  -20.5256 H   0  0  0  0  0  0  0  0  0  0  0  0
   -8.5732  -50.8296  -21.5568 H   0  0  0  0  0  0  0  0  0  0  0  0
   -8.8412  -50.0346  -23.1106 H   0  0  0  0  0  0  0  0  0  0  0  0
  -11.2226  -50.7995  -23.0926 H   0  0  0  0  0  0  0  0  0  0  0  0
  -10.9559  -51.5938  -21.5373 H   0  0  0  0  0  0  0  0  0  0  0  0
   -9.1615  -53.0024  -22.5636 H   0  0  0  0  0  0  0  0  0  0  0  0
   -9.4284  -52.2077  -24.1197 H   0  0  0  0  0  0  0  0  0  0  0  0
  -11.8115  -52.9636  -24.0960 H   0  0  0  0  0  0  0  0  0  0  0  0
  -11.5437  -53.7611  -22.5422 H   0  0  0  0  0  0  0  0  0  0  0  0
   -9.7414  -55.1572  -23.5670 H   0  0  0  0  0  0  0  0  0  0  0  0
  -10.0093  -54.3612  -25.1223 H   0  0  0  0  0  0  0  0  0  0  0  0
  -12.3894  -55.1170  -25.0995 H   0  0  0  0  0  0  0  0  0  0  0  0
  -12.1226  -55.9120  -23.5441 H   0  0  0  0  0  0  0  0  0  0  0  0
  -10.3055  -57.2946  -24.5598 H   0  0  0  0  0  0  0  0  0  0  0  0
  -10.5721  -56.4978  -26.1194 H   0  0  0  0  0  0  0  0  0  0  0  0
  -12.9610  -57.2349  -26.0760 H   0  0  0  0  0  0  0  0  0  0  0  0
  -12.6949  -58.0209  -24.5328 H   0  0  0  0  0  0  0  0  0  0  0  0
  -10.9070  -59.4406  -25.5418 H   0  0  0  0  0  0  0  0  0  0  0  0
  -11.1854  -58.6380  -27.1240 H   0  0  0  0  0  0  0  0  0  0  0  0
  -16.1305  -79.0694  -36.8348 H   0  0  0  0  0  0  0  0  0  0  0  0
  1  2  1  0  0  0  0
  1 80  1  0  0  0  0
  1 81  1  0  0  0  0
  1 82  1  0  0  0  0
  2  3  1  0  0  0  0
  2  5  1  0  0  0  0
  3  4  1  0  0  0  0
  3 83  1  0  0  0  0
  3 84  1  0  0  0  0
  4  5  1  0  0  0  0
  4 85  1  0  0  0  0
  4 86  1  0  0  0  0
  5  6  1  0  0  0  0
  5 87  1  0  0  0  0
  6  7  1  0  0  0  0
  6 88  1  0  0  0  0
  6 89  1  0  0  0  0
  7  8  1  0  0  0  0
  7 90  1  0  0  0  0
  7 91  1  0  0  0  0
  8  9  1  0  0  0  0
  8 92  1  0  0  0  0
  8 93  1  0  0  0  0
  9 10  1  0  0  0  0
  9 94  1  0  0  0  0
  9 95  1  0  0  0  0
 10 11  1  0  0  0  0
 10 96  1  0  0  0  0
 10 97  1  0  0  0  0
 11 12  1  0  0  0  0
 11 98  1  0  0  0  0
 11 99  1  0  0  0  0
 12 13  1  0  0  0  0
 12100  1  0  0  0  0
 12101  1  0  0  0  0
 13 14  1  0  0  0  0
 13102  1  0  0  0  0
 13103  1  0  0  0  0
 14 15  1  0  0  0  0
 14104  1  0  0  0  0
 14105  1  0  0  0  0
 15 16  1  0  0  0  0
 15106  1  0  0  0  0
 15107  1  0  0  0  0
 16 17  1  0  0  0  0
 16108  1  0  0  0  0
 16109  1  0  0  0  0
 17 18  1  0  0  0  0
 17110  1  0  0  0  0
 17111  1  0  0  0  0
 18 19  1  0  0  0  0
 18112  1  0  0  0  0
 18113  1  0  0  0  0
 19 20  1  0  0  0  0
 19114  1  0  0  0  0
 19115  1  0  0  0  0
 20 21  1  0  0  0  0
 20116  1  0  0  0  0
 20117  1  0  0  0  0
 21 22  1  0  0  0  0
 21118  1  0  0  0  0
 21119  1  0  0  0  0
 22 23  1  0  0  0  0
 22120  1  0  0  0  0
 22121  1  0  0  0  0
 23 24  1  0  0  0  0
 23122  1  0  0  0  0
 23123  1  0  0  0  0
 24 25  1  0  0  0  0
 24124  1  0  0  0  0
 24125  1  0  0  0  0
 25 26  1  0  0  0  0
 25126  1  0  0  0  0
 25127  1  0  0  0  0
 26 27  1  0  0  0  0
 26128  1  0  0  0  0
 26129  1  0  0  0  0
 27 28  1  0  0  0  0
 27130  1  0  0  0  0
 27131  1  0  0  0  0
 28 29  1  0  0  0  0
 28132  1  0  0  0  0
 28133  1  0  0  0  0
 29 30  1  0  0  0  0
 29134  1  0  0  0  0
 29135  1  0  0  0  0
 30 31  1  0  0  0  0
 30136  1  0  0  0  0
 30137  1  0  0  0  0
 31 32  1  0  0  0  0
 31138  1  0  0  0  0
 31139  1  0  0  0  0
 32 33  1  0  0  0  0
 32140  1  0  0  0  0
 32141  1  0  0  0  0
 33 34  1  0  0  0  0
 33142  1  0  0  0  0
 33143  1  0  0  0  0
 34 35  1  0  0  0  0
 34144  1  0  0  0  0
 34145  1  0  0  0  0
 35 36  1  0  0  0  0
 35146  1  0  0  0  0
 35147  1  0  0  0  0
 36 37  1  0  0  0  0
 36148  1  0  0  0  0
 36149  1  0  0  0  0
 37 38  1  0  0  0  0
 37150  1  0  0  0  0
 37151  1  0  0  0  0
 38 39  1  0  0  0  0
 38152  1  0  0  0  0
 38153  1  0  0  0  0
 39 40  1  0  0  0  0
 39154  1  0  0  0  0
 39155  1  0  0  0  0
 40 41  1  0  0  0  0
 40156  1  0  0  0  0
 40157  1  0  0  0  0
 41 42  1  0  0  0  0
 41158  1  0  0  0  0
 41159  1  0  0  0  0
 42 43  1  0  0  0  0
 42160  1  0  0  0  0
 42161  1  0  0  0  0
 43 44  1  0  0  0  0
 43162  1  0  0  0  0
 43163  1  0  0  0  0
 44 45  1  0  0  0  0
 44164  1  0  0  0  0
 44165  1  0  0  0  0
 45 46  1  0  0  0  0
 45166  1  0  0  0  0
 45167  1  0  0  0  0
 46 47  1  0  0  0  0
 46168  1  0  0  0  0
 46169  1  0  0  0  0
 47 48  1  0  0  0  0
 47170  1  0  0  0  0
 47171  1  0  0  0  0
 48 49  1  0  0  0  0
 48172  1  0  0  0  0
 48173  1  0  0  0  0
 49 50  1  0  0  0  0
 49174  1  0  0  0  0
 49175  1  0  0  0  0
 50 51  1  0  0  0  0
 50176  1  0  0  0  0
 50177  1  0  0  0  0
 51 52  1  0  0  0  0
 51178  1  0  0  0  0
 51179  1  0  0  0  0
 52 53  1  0  0  0  0
 52180  1  0  0  0  0
 52181  1  0  0  0  0
 53 54  1  0  0  0  0
 53182  1  0  0  0  0
 53183  1  0  0  0  0
 54 55  1  0  0  0  0
 54184  1  0  0  0  0
 54185  1  0  0  0  0
 55 56  1  0  0  0  0
 55186  1  0  0  0  0
 55187  1  0  0  0  0
 56 57  1  0  0  0  0
 56188  1  0  0  0  0
 56189  1  0  0  0  0
 57 58  1  0  0  0  0
 57190  1  0  0  0  0
 57191  1  0  0  0  0
 58 59  1  0  0  0  0
 58192  1  0  0  0  0
 58193  1  0  0  0  0
 59 60  1  0  0  0  0
 60 61  1  0  0  0  0
 61 62  1  0  0  0  0
 62 63  1  0  0  0  0
 63 64  1  0  0  0  0
 64 65  1  0  0  0  0
 65 66  1  0  0  0  0
 66 67  1  0  0  0  0
 67 68  1  0  0  0  0
 68 69  1  0  0  0  0
 69 70  1  0  0  0  0
 70 71  1  0  0  0  0
 71 72  1  0  0  0  0
 72 73  1  0  0  0  0
 73 74  1  0  0  0  0
 74 75  1  0  0  0  0
 75 76  1  0  0  0  0
 76 77  1  0  0  0  0
 77 78  1  0  0  0  0
 78 79  1  0  0  0  0
 79194  1  0  0  0  0
M  END
$$$$
