
 OpenBabel04232216393D

 80 80  0  0  0  0  0  0  0  0999 V2000
   16.4472    6.8272    3.0898 C   0  0  0  0  0  0  0  0  0  0  0  0
   17.7299    8.3663    3.4614 C   0  0  0  0  0  0  0  0  0  0  0  0
   15.3511    7.4541    2.7526 C   0  0  0  0  0  0  0  0  0  0  0  0
   13.3655    6.3969    2.2290 C   0  0  0  0  0  0  0  0  0  0  0  0
   11.3139    5.1144    1.8887 C   0  0  0  0  0  0  0  0  0  0  0  0
    9.7366    3.8294    1.7095 C   0  0  0  0  0  0  0  0  0  0  0  0
    8.5083    4.1200    3.1494 C   0  0  0  0  0  0  0  0  0  0  0  0
    9.7375    4.3010    3.7374 C   0  0  0  0  0  0  0  0  0  0  0  0
   10.2386    5.6282    3.8985 C   0  0  0  0  0  0  0  0  0  0  0  0
   11.5265    5.7276    4.3970 C   0  0  0  0  0  0  0  0  0  0  0  0
   12.1409    7.0407    4.6968 C   0  0  0  0  0  0  0  0  0  0  0  0
   13.3683    6.7802    5.0426 C   0  0  0  0  0  0  0  0  0  0  0  0
   13.8690    7.9530    4.6553 C   0  0  0  0  0  0  0  0  0  0  0  0
   15.1141    7.4511    4.9823 C   0  0  0  0  0  0  0  0  0  0  0  0
   15.8843    8.5027    5.3582 C   0  0  0  0  0  0  0  0  0  0  0  0
   17.1426    8.7087    5.5611 C   0  0  0  0  0  0  0  0  0  0  0  0
   18.0858    9.6096    5.9322 C   0  0  0  0  0  0  0  0  0  0  0  0
   19.3988    9.4008    6.1900 C   0  0  0  0  0  0  0  0  0  0  0  0
   19.9231   10.6479    6.4773 C   0  0  0  0  0  0  0  0  0  0  0  0
   21.1952   10.4130    6.6119 C   0  0  0  0  0  0  0  0  0  0  0  0
   21.9248   11.5784    7.0079 C   0  0  0  0  0  0  0  0  0  0  0  0
   23.1043   10.9253    7.2852 C   0  0  0  0  0  0  0  0  0  0  0  0
   24.3953   11.7331    7.7370 C   0  0  0  0  0  0  0  0  0  0  0  0
   25.8885   11.3815    7.6955 C   0  0  0  0  0  0  0  0  0  0  0  0
   25.9533   12.9943    8.4744 C   0  0  0  0  0  0  0  0  0  0  0  0
   27.1476   13.4584    8.6177 C   0  0  0  0  0  0  0  0  0  0  0  0
   27.6081   14.8140    8.9597 C   0  0  0  0  0  0  0  0  0  0  0  0
   28.8610   14.4937    9.2565 C   0  0  0  0  0  0  0  0  0  0  0  0
   29.5015   15.7019    9.6516 C   0  0  0  0  0  0  0  0  0  0  0  0
   30.7105   15.2268    9.9837 C   0  0  0  0  0  0  0  0  0  0  0  0
   31.5072   16.5471   10.6819 C   0  0  0  0  0  0  0  0  0  0  0  0
   32.9063   16.6313   10.7117 C   0  0  0  0  0  0  0  0  0  0  0  0
   33.0275   17.8834   10.0593 C   0  0  0  0  0  0  0  0  0  0  0  0
   32.2569   16.6706    8.7645 C   0  0  0  0  0  0  0  0  0  0  0  0
   30.3781   15.6197    7.6506 C   0  0  0  0  0  0  0  0  0  0  0  0
   28.6417   14.5956    6.8872 C   0  0  0  0  0  0  0  0  0  0  0  0
   26.5152   13.4726    6.0952 C   0  0  0  0  0  0  0  0  0  0  0  0
   24.4302   12.2353    5.4088 C   0  0  0  0  0  0  0  0  0  0  0  0
   22.1381   10.8356    4.6301 C   0  0  0  0  0  0  0  0  0  0  0  0
   20.1484    9.5043    4.3270 C   0  0  0  0  0  0  0  0  0  0  0  0
   15.0970    5.8385    3.2215 H   0  0  0  0  0  0  0  0  0  0  0  0
   15.1564    5.8109    2.7299 H   0  0  0  0  0  0  0  0  0  0  0  0
   13.8747    6.5426    2.7973 H   0  0  0  0  0  0  0  0  0  0  0  0
   11.9367    5.4385    2.2758 H   0  0  0  0  0  0  0  0  0  0  0  0
    9.6144    4.7692    1.6509 H   0  0  0  0  0  0  0  0  0  0  0  0
    8.6162    2.5300    1.4059 H   0  0  0  0  0  0  0  0  0  0  0  0
    7.3362    4.7500    2.9546 H   0  0  0  0  0  0  0  0  0  0  0  0
   10.5799    3.4999    3.0777 H   0  0  0  0  0  0  0  0  0  0  0  0
    9.1377    6.0063    3.5616 H   0  0  0  0  0  0  0  0  0  0  0  0
   12.6240    4.9834    4.2498 H   0  0  0  0  0  0  0  0  0  0  0  0
   11.4032    7.1606    3.9812 H   0  0  0  0  0  0  0  0  0  0  0  0
   13.3767    6.2911    4.1771 H   0  0  0  0  0  0  0  0  0  0  0  0
   13.3292    8.7647    5.1365 H   0  0  0  0  0  0  0  0  0  0  0  0
   15.8941    6.4203    4.7328 H   0  0  0  0  0  0  0  0  0  0  0  0
   15.1181    9.1829    5.3547 H   0  0  0  0  0  0  0  0  0  0  0  0
   17.8784    8.0898    5.1954 H   0  0  0  0  0  0  0  0  0  0  0  0
   17.3503   10.3476    6.0736 H   0  0  0  0  0  0  0  0  0  0  0  0
   20.3336    8.5759    5.7207 H   0  0  0  0  0  0  0  0  0  0  0  0
   19.2611   11.4511    6.6897 H   0  0  0  0  0  0  0  0  0  0  0  0
   21.7323    9.3794    5.9271 H   0  0  0  0  0  0  0  0  0  0  0  0
   21.3915   12.4688    7.4242 H   0  0  0  0  0  0  0  0  0  0  0  0
   23.3313    9.7909    6.6164 H   0  0  0  0  0  0  0  0  0  0  0  0
   23.9274   12.9669    7.7753 H   0  0  0  0  0  0  0  0  0  0  0  0
   27.1750   11.2615    6.9577 H   0  0  0  0  0  0  0  0  0  0  0  0
   25.5714   14.1157    8.4319 H   0  0  0  0  0  0  0  0  0  0  0  0
   27.5674   12.5338    8.0500 H   0  0  0  0  0  0  0  0  0  0  0  0
   27.4519   15.8765    9.3530 H   0  0  0  0  0  0  0  0  0  0  0  0
   29.5683   13.4783    8.6544 H   0  0  0  0  0  0  0  0  0  0  0  0
   29.6481   16.7685    9.8279 H   0  0  0  0  0  0  0  0  0  0  0  0
   31.2834   14.2663    9.1465 H   0  0  0  0  0  0  0  0  0  0  0  0
   31.1480   17.6919   10.5379 H   0  0  0  0  0  0  0  0  0  0  0  0
   33.8483   15.8113   10.1235 H   0  0  0  0  0  0  0  0  0  0  0  0
   34.0094   18.8095   11.0408 H   0  0  0  0  0  0  0  0  0  0  0  0
   33.9063   16.9467    9.2714 H   0  0  0  0  0  0  0  0  0  0  0  0
   31.9879   16.0216    8.2436 H   0  0  0  0  0  0  0  0  0  0  0  0
   30.1688   14.6748    7.5779 H   0  0  0  0  0  0  0  0  0  0  0  0
   27.9269   13.4980    6.8317 H   0  0  0  0  0  0  0  0  0  0  0  0
   25.7283   12.3847    6.2589 H   0  0  0  0  0  0  0  0  0  0  0  0
   23.4196   10.6631    5.3785 H   0  0  0  0  0  0  0  0  0  0  0  0
   19.4494    8.2363    4.2446 H   0  0  0  0  0  0  0  0  0  0  0  0
  1  2  2  0  0  0  0
  1 41  1  0  0  0  0
  1 42  1  0  0  0  0
  2  3  1  0  0  0  0
  2 40  1  0  0  0  0
  3  4  2  3  0  0  0
  3 43  1  0  0  0  0
  4  5  1  0  0  0  0
  4 44  1  0  0  0  0
  5  6  2  3  0  0  0
  5 45  1  0  0  0  0
  6  7  1  0  0  0  0
  6 46  1  0  0  0  0
  7  8  2  3  0  0  0
  7 47  1  0  0  0  0
  8  9  1  0  0  0  0
  8 48  1  0  0  0  0
  9 10  2  3  0  0  0
  9 49  1  0  0  0  0
 10 11  1  0  0  0  0
 10 50  1  0  0  0  0
 11 12  2  3  0  0  0
 11 51  1  0  0  0  0
 12 13  1  0  0  0  0
 12 52  1  0  0  0  0
 13 14  2  3  0  0  0
 13 53  1  0  0  0  0
 14 15  1  0  0  0  0
 14 54  1  0  0  0  0
 15 16  2  3  0  0  0
 15 55  1  0  0  0  0
 16 17  1  0  0  0  0
 16 56  1  0  0  0  0
 17 18  2  3  0  0  0
 17 57  1  0  0  0  0
 18 19  1  0  0  0  0
 18 58  1  0  0  0  0
 19 20  2  3  0  0  0
 19 59  1  0  0  0  0
 20 21  1  0  0  0  0
 20 60  1  0  0  0  0
 21 22  2  3  0  0  0
 21 61  1  0  0  0  0
 22 23  1  0  0  0  0
 22 62  1  0  0  0  0
 23 24  2  3  0  0  0
 23 63  1  0  0  0  0
 24 25  1  0  0  0  0
 24 64  1  0  0  0  0
 25 26  2  3  0  0  0
 25 65  1  0  0  0  0
 26 27  1  0  0  0  0
 26 66  1  0  0  0  0
 27 28  2  3  0  0  0
 27 67  1  0  0  0  0
 28 29  1  0  0  0  0
 28 68  1  0  0  0  0
 29 30  2  3  0  0  0
 29 69  1  0  0  0  0
 30 31  1  0  0  0  0
 30 70  1  0  0  0  0
 31 32  2  3  0  0  0
 31 71  1  0  0  0  0
 32 33  1  0  0  0  0
 32 72  1  0  0  0  0
 33 34  2  3  0  0  0
 33 73  1  0  0  0  0
 34 35  1  0  0  0  0
 34 74  1  0  0  0  0
 35 36  2  3  0  0  0
 35 75  1  0  0  0  0
 36 37  1  0  0  0  0
 36 76  1  0  0  0  0
 37 38  2  3  0  0  0
 37 77  1  0  0  0  0
 38 39  1  0  0  0  0
 38 78  1  0  0  0  0
 39 40  2  3  0  0  0
 39 79  1  0  0  0  0
 40 80  1  0  0  0  0
M  END
$$$$
