
 OpenBabel04232216423D

 43 44  0  0  0  0  0  0  0  0999 V2000
    4.9123    3.3370   -1.7913 C   0  0  0  0  0  0  0  0  0  0  0  0
    4.5766    2.6088   -0.5428 C   0  0  0  0  0  0  0  0  0  0  0  0
    3.8443    1.5070   -0.8292 C   0  0  0  0  0  0  0  0  0  0  0  0
    2.4900    1.7161   -1.5519 C   0  0  0  0  0  0  0  0  0  0  0  0
    4.3515    0.1274   -0.6381 C   0  0  0  0  0  0  0  0  0  0  0  0
    3.2053   -0.7613   -0.1688 C   0  0  0  0  0  0  0  0  0  0  0  0
    5.6212   -0.3988   -0.7341 C   0  0  0  0  0  0  0  0  0  0  0  0
    6.9693    0.2951   -1.0672 C   0  0  0  0  0  0  0  0  0  0  0  0
    7.8851    0.6097    0.4537 S   0  0  0  0  0  0  0  0  0  0  0  0
    8.9304   -0.7317    0.9392 C   0  0  0  0  0  0  0  0  0  0  0  0
    8.6581   -1.9725    1.4006 C   0  0  0  0  0  0  0  0  0  0  0  0
    7.5394   -2.1608    2.3024 C   0  0  0  0  0  0  0  0  0  0  0  0
    6.7803   -3.2553    2.1711 C   0  0  0  0  0  0  0  0  0  0  0  0
    5.4348   -3.0770    2.0005 N   0  0  0  0  0  0  0  0  0  0  0  0
    5.0347   -2.3172    1.0737 N   0  0  0  0  0  0  0  0  0  0  0  0
    5.9024   -2.1354   -0.3910 S   0  0  0  0  0  0  0  0  0  0  0  0
    7.3140    0.6929   -2.2789 N   0  0  0  0  0  0  0  0  0  0  0  0
    8.4473    1.4727   -2.4754 C   0  0  0  0  0  0  0  0  0  0  0  0
    8.6176    2.3896   -3.4482 C   0  0  0  0  0  0  0  0  0  0  0  0
    9.6261    3.4466   -3.3340 C   0  0  0  0  0  0  0  0  0  0  0  0
    9.5480    4.4498   -2.4330 C   0  0  0  0  0  0  0  0  0  0  0  0
    8.4906    4.6179   -1.4263 C   0  0  0  0  0  0  0  0  0  0  0  0
    7.1685    4.4999   -1.5678 C   0  0  0  0  0  0  0  0  0  0  0  0
    5.9778    4.0020   -2.2144 C   0  0  0  0  0  0  0  0  0  0  0  0
    4.2083    3.1160   -2.5982 H   0  0  0  0  0  0  0  0  0  0  0  0
    3.9906    3.4031   -0.0450 H   0  0  0  0  0  0  0  0  0  0  0  0
    1.6396    1.1830   -1.1286 H   0  0  0  0  0  0  0  0  0  0  0  0
    2.5771    1.4333   -2.6093 H   0  0  0  0  0  0  0  0  0  0  0  0
    2.1735    2.7685   -1.5263 H   0  0  0  0  0  0  0  0  0  0  0  0
    2.2042   -0.4413   -0.4322 H   0  0  0  0  0  0  0  0  0  0  0  0
    3.2137   -0.7891    0.9265 H   0  0  0  0  0  0  0  0  0  0  0  0
    3.2600   -1.7651   -0.5960 H   0  0  0  0  0  0  0  0  0  0  0  0
    9.5263   -0.2715    1.7345 H   0  0  0  0  0  0  0  0  0  0  0  0
    9.4071   -2.7613    1.4120 H   0  0  0  0  0  0  0  0  0  0  0  0
    7.0598   -1.2424    2.6463 H   0  0  0  0  0  0  0  0  0  0  0  0
    7.1572   -4.2152    1.8352 H   0  0  0  0  0  0  0  0  0  0  0  0
    9.2495    1.3988   -1.7435 H   0  0  0  0  0  0  0  0  0  0  0  0
    7.8851    2.5385   -4.2410 H   0  0  0  0  0  0  0  0  0  0  0  0
   10.4597    3.4269   -4.0359 H   0  0  0  0  0  0  0  0  0  0  0  0
   10.3313    5.2111   -2.4056 H   0  0  0  0  0  0  0  0  0  0  0  0
    8.8431    4.9531   -0.4550 H   0  0  0  0  0  0  0  0  0  0  0  0
    7.3123    4.8720   -2.6315 H   0  0  0  0  0  0  0  0  0  0  0  0
    5.8904    4.1124   -3.2961 H   0  0  0  0  0  0  0  0  0  0  0  0
  1  2  1  0  0  0  0
  1 24  2  0  0  0  0
  1 25  1  0  0  0  0
  2  3  2  0  0  0  0
  2 26  1  0  0  0  0
  3  4  1  0  0  0  0
  3  5  1  0  0  0  0
  4 27  1  0  0  0  0
  4 28  1  0  0  0  0
  4 29  1  0  0  0  0
  5  6  1  0  0  0  0
  5  7  2  0  0  0  0
  6 30  1  0  0  0  0
  6 31  1  0  0  0  0
  6 32  1  0  0  0  0
  7  8  1  0  0  0  0
  7 16  1  0  0  0  0
  8  9  1  0  0  0  0
  8 17  2  0  0  0  0
  9 10  1  0  0  0  0
 10 11  2  3  0  0  0
 10 33  1  0  0  0  0
 11 12  1  0  0  0  0
 11 34  1  0  0  0  0
 12 13  2  3  0  0  0
 12 35  1  0  0  0  0
 13 14  1  0  0  0  0
 13 36  1  0  0  0  0
 14 15  2  3  0  0  0
 15 16  1  0  0  0  0
 17 18  1  0  0  0  0
 18 19  2  0  0  0  0
 18 37  1  0  0  0  0
 19 20  1  0  0  0  0
 19 38  1  0  0  0  0
 20 21  2  0  0  0  0
 20 39  1  0  0  0  0
 21 22  1  0  0  0  0
 21 40  1  0  0  0  0
 22 23  2  0  0  0  0
 22 41  1  0  0  0  0
 23 24  1  0  0  0  0
 23 42  1  0  0  0  0
 24 43  1  0  0  0  0
M  END
$$$$
