
 OpenBabel04232216553D

 43 43  0  0  0  0  0  0  0  0999 V2000
    5.8137   -1.7521    1.9683 C   0  0  0  0  0  0  0  0  0  0  0  0
    6.2224   -0.4801    2.7078 N   0  0  0  0  0  0  0  0  0  0  0  0
    5.1439    0.4294    2.3792 C   0  0  0  0  0  0  0  0  0  0  0  0
    3.8270    0.2671    2.6422 C   0  0  0  0  0  0  0  0  0  0  0  0
    5.4389    1.5615    1.5275 C   0  0  0  0  0  0  0  0  0  0  0  0
    5.9580    1.3150    0.1335 C   0  0  0  0  0  0  0  0  0  0  0  0
    5.2740    2.7870    2.1154 C   0  0  0  0  0  0  0  0  0  0  0  0
    4.2571    3.1693    3.1173 C   0  0  0  0  0  0  0  0  0  0  0  0
    6.6098    3.2995    2.4475 C   0  0  0  0  0  0  0  0  0  0  0  0
    7.3975    3.6539    1.5731 O   0  0  0  0  0  0  0  0  0  0  0  0
    7.1003    3.2488    3.9031 C   0  0  0  0  0  0  0  0  0  0  0  0
    6.3351    3.4278    5.2112 C   0  0  0  0  0  0  0  0  0  0  0  0
    8.3759    3.2115    3.9337 N   0  0  0  0  0  0  0  0  0  0  0  0
    9.0374    3.4410    5.0749 C   0  0  0  0  0  0  0  0  0  0  0  0
   10.1399    4.1395    4.8241 C   0  0  0  0  0  0  0  0  0  0  0  0
   11.3403    3.4263    5.1203 C   0  0  0  0  0  0  0  0  0  0  0  0
   11.6700    2.2849    4.4862 C   0  0  0  0  0  0  0  0  0  0  0  0
   10.8563    1.0166    4.6224 C   0  0  0  0  0  0  0  0  0  0  0  0
    9.7767    0.3074    4.1778 C   0  0  0  0  0  0  0  0  0  0  0  0
    8.8820    0.2840    2.9909 C   0  0  0  0  0  0  0  0  0  0  0  0
    7.6348   -0.0673    2.5208 C   0  0  0  0  0  0  0  0  0  0  0  0
    4.7173   -1.8833    1.9495 H   0  0  0  0  0  0  0  0  0  0  0  0
    6.1917   -2.6563    2.4294 H   0  0  0  0  0  0  0  0  0  0  0  0
    6.0908   -1.6875    0.9074 H   0  0  0  0  0  0  0  0  0  0  0  0
    3.0776    0.9401    2.2336 H   0  0  0  0  0  0  0  0  0  0  0  0
    3.4313   -0.5205    3.2683 H   0  0  0  0  0  0  0  0  0  0  0  0
    5.1198    1.0735   -0.5320 H   0  0  0  0  0  0  0  0  0  0  0  0
    6.6123    0.4488    0.0420 H   0  0  0  0  0  0  0  0  0  0  0  0
    6.5082    2.1514   -0.3111 H   0  0  0  0  0  0  0  0  0  0  0  0
    3.2552    3.2048    2.6981 H   0  0  0  0  0  0  0  0  0  0  0  0
    4.4606    4.1633    3.5281 H   0  0  0  0  0  0  0  0  0  0  0  0
    4.2445    2.4323    3.9301 H   0  0  0  0  0  0  0  0  0  0  0  0
    5.2741    3.2620    5.2409 H   0  0  0  0  0  0  0  0  0  0  0  0
    6.5323    4.4383    5.5863 H   0  0  0  0  0  0  0  0  0  0  0  0
    6.7246    2.7151    5.9641 H   0  0  0  0  0  0  0  0  0  0  0  0
    8.9813    2.7528    5.9143 H   0  0  0  0  0  0  0  0  0  0  0  0
   10.1581    4.6758    3.8657 H   0  0  0  0  0  0  0  0  0  0  0  0
   11.9817    3.9325    5.8399 H   0  0  0  0  0  0  0  0  0  0  0  0
   12.7319    2.0614    4.5830 H   0  0  0  0  0  0  0  0  0  0  0  0
   11.3954    0.5105    5.4153 H   0  0  0  0  0  0  0  0  0  0  0  0
    9.6710   -0.6300    4.7300 H   0  0  0  0  0  0  0  0  0  0  0  0
    9.5381    0.5682    2.1622 H   0  0  0  0  0  0  0  0  0  0  0  0
    7.7201   -0.1062    1.4408 H   0  0  0  0  0  0  0  0  0  0  0  0
  1  2  1  0  0  0  0
  1 22  1  0  0  0  0
  1 23  1  0  0  0  0
  1 24  1  0  0  0  0
  2  3  1  0  0  0  0
  2 21  1  0  0  0  0
  3  4  2  0  0  0  0
  3  5  1  0  0  0  0
  4 25  1  0  0  0  0
  4 26  1  0  0  0  0
  5  6  1  0  0  0  0
  5  7  2  3  0  0  0
  6 27  1  0  0  0  0
  6 28  1  0  0  0  0
  6 29  1  0  0  0  0
  7  8  1  0  0  0  0
  7  9  1  0  0  0  0
  8 30  1  0  0  0  0
  8 31  1  0  0  0  0
  8 32  1  0  0  0  0
  9 10  2  0  0  0  0
  9 11  1  0  0  0  0
 11 12  1  0  0  0  0
 11 13  2  3  0  0  0
 12 33  1  0  0  0  0
 12 34  1  0  0  0  0
 12 35  1  0  0  0  0
 13 14  1  0  0  0  0
 14 15  2  3  0  0  0
 14 36  1  0  0  0  0
 15 16  1  0  0  0  0
 15 37  1  0  0  0  0
 16 17  2  3  0  0  0
 16 38  1  0  0  0  0
 17 18  1  0  0  0  0
 17 39  1  0  0  0  0
 18 19  2  3  0  0  0
 18 40  1  0  0  0  0
 19 20  1  0  0  0  0
 19 41  1  0  0  0  0
 20 21  2  3  0  0  0
 20 42  1  0  0  0  0
 21 43  1  0  0  0  0
M  END
$$$$
