
 OpenBabel04232216483D

 82 82  0  0  0  0  0  0  0  0999 V2000
    5.9909    4.0567    1.6948 C   0  0  0  0  0  0  0  0  0  0  0  0
    6.6821    3.5959    0.4276 C   0  0  0  0  0  0  0  0  0  0  0  0
    5.9664    2.5735   -0.0983 C   0  0  0  0  0  0  0  0  0  0  0  0
    6.0964    1.7290   -1.2498 C   0  0  0  0  0  0  0  0  0  0  0  0
    5.8955    2.1927   -2.4977 C   0  0  0  0  0  0  0  0  0  0  0  0
    4.9697    3.3600   -2.7707 C   0  0  0  0  0  0  0  0  0  0  0  0
    3.4816    3.0708   -2.4581 C   0  0  0  0  0  0  0  0  0  0  0  0
    2.6430    4.3479   -2.2949 C   0  0  0  0  0  0  0  0  0  0  0  0
    2.7401    5.2851   -3.4961 C   0  0  0  0  0  0  0  0  0  0  0  0
    1.8874    6.5357   -3.3011 C   0  0  0  0  0  0  0  0  0  0  0  0
    2.0373    7.4753   -4.4949 C   0  0  0  0  0  0  0  0  0  0  0  0
    1.2057    8.7378   -4.3021 C   0  0  0  0  0  0  0  0  0  0  0  0
    1.3627    9.6788   -5.4927 C   0  0  0  0  0  0  0  0  0  0  0  0
    0.5300   10.9386   -5.2900 C   0  0  0  0  0  0  0  0  0  0  0  0
    0.6708   11.8925   -6.4722 C   0  0  0  0  0  0  0  0  0  0  0  0
   -0.1745   13.1448   -6.2471 C   0  0  0  0  0  0  0  0  0  0  0  0
   -0.0488   14.1108   -7.4179 C   0  0  0  0  0  0  0  0  0  0  0  0
   -1.0768   15.5794   -7.1034 S   0  0  0  0  0  0  0  0  0  0  0  0
   -0.7587   16.4151   -8.5035 O   0  0  0  0  0  0  0  0  0  0  0  0
    7.1571    2.0670   -3.3032 C   0  0  0  0  0  0  0  0  0  0  0  0
    7.8686    3.4023   -3.5532 C   0  0  0  0  0  0  0  0  0  0  0  0
    9.3326    3.0936   -3.3657 C   0  0  0  0  0  0  0  0  0  0  0  0
   10.2868    4.2105   -3.6724 C   0  0  0  0  0  0  0  0  0  0  0  0
   11.6357    3.7925   -3.0459 C   0  0  0  0  0  0  0  0  0  0  0  0
   12.4836    4.9730   -2.6594 C   0  0  0  0  0  0  0  0  0  0  0  0
   13.4838    5.4511   -3.6857 C   0  0  0  0  0  0  0  0  0  0  0  0
   13.0462    6.8385   -4.1879 C   0  0  0  0  0  0  0  0  0  0  0  0
   13.1998    7.7846   -3.1062 O   0  0  0  0  0  0  0  0  0  0  0  0
   11.8620    7.9534   -2.4444 O   0  0  0  0  0  0  0  0  0  0  0  0
   11.7702    7.2644   -1.1094 O   0  0  0  0  0  0  0  0  0  0  0  0
   10.3376    7.0786   -0.6237 O   0  0  0  0  0  0  0  0  0  0  0  0
    9.7134    5.7492   -0.9946 O   0  0  0  0  0  0  0  0  0  0  0  0
    8.7958    5.2759    0.1024 C   0  0  0  0  0  0  0  0  0  0  0  0
    8.0234    4.1489   -0.0809 C   0  0  0  0  0  0  0  0  0  0  0  0
    5.2527    4.7869    1.4360 H   0  0  0  0  0  0  0  0  0  0  0  0
    6.6638    4.3584    2.4827 H   0  0  0  0  0  0  0  0  0  0  0  0
    5.4279    3.2006    2.1191 H   0  0  0  0  0  0  0  0  0  0  0  0
    5.0554    2.2489    0.4075 H   0  0  0  0  0  0  0  0  0  0  0  0
    5.7705    0.6877   -1.0884 H   0  0  0  0  0  0  0  0  0  0  0  0
    5.0488    3.6391   -3.8282 H   0  0  0  0  0  0  0  0  0  0  0  0
    5.2975    4.2211   -2.1788 H   0  0  0  0  0  0  0  0  0  0  0  0
    3.3641    2.4830   -1.5378 H   0  0  0  0  0  0  0  0  0  0  0  0
    3.0534    2.4609   -3.2637 H   0  0  0  0  0  0  0  0  0  0  0  0
    2.9644    4.8778   -1.3890 H   0  0  0  0  0  0  0  0  0  0  0  0
    1.5931    4.0687   -2.1349 H   0  0  0  0  0  0  0  0  0  0  0  0
    2.4218    4.7570   -4.4026 H   0  0  0  0  0  0  0  0  0  0  0  0
    3.7805    5.5939   -3.6460 H   0  0  0  0  0  0  0  0  0  0  0  0
    2.1948    7.0551   -2.3851 H   0  0  0  0  0  0  0  0  0  0  0  0
    0.8344    6.2563   -3.1780 H   0  0  0  0  0  0  0  0  0  0  0  0
    1.7240    6.9617   -5.4119 H   0  0  0  0  0  0  0  0  0  0  0  0
    3.0926    7.7468   -4.6215 H   0  0  0  0  0  0  0  0  0  0  0  0
    1.5184    9.2497   -3.3836 H   0  0  0  0  0  0  0  0  0  0  0  0
    0.1493    8.4695   -4.1792 H   0  0  0  0  0  0  0  0  0  0  0  0
    1.0478    9.1699   -6.4116 H   0  0  0  0  0  0  0  0  0  0  0  0
    2.4186    9.9487   -5.6162 H   0  0  0  0  0  0  0  0  0  0  0  0
    0.8464   11.4443   -4.3688 H   0  0  0  0  0  0  0  0  0  0  0  0
   -0.5246   10.6654   -5.1605 H   0  0  0  0  0  0  0  0  0  0  0  0
    0.3536   11.3891   -7.3935 H   0  0  0  0  0  0  0  0  0  0  0  0
    1.7239   12.1711   -6.5996 H   0  0  0  0  0  0  0  0  0  0  0  0
    0.1497   13.6326   -5.3188 H   0  0  0  0  0  0  0  0  0  0  0  0
   -1.2228   12.8488   -6.1125 H   0  0  0  0  0  0  0  0  0  0  0  0
   -0.3823   13.6357   -8.3464 H   0  0  0  0  0  0  0  0  0  0  0  0
    0.9918   14.4253   -7.5482 H   0  0  0  0  0  0  0  0  0  0  0  0
   -1.2255   17.2856   -8.4995 H   0  0  0  0  0  0  0  0  0  0  0  0
    7.0268    1.4940   -4.2236 H   0  0  0  0  0  0  0  0  0  0  0  0
    7.8425    1.4466   -2.6992 H   0  0  0  0  0  0  0  0  0  0  0  0
    7.5624    4.1816   -2.8389 H   0  0  0  0  0  0  0  0  0  0  0  0
    7.6408    3.7917   -4.5493 H   0  0  0  0  0  0  0  0  0  0  0  0
    9.6228    2.2228   -3.9594 H   0  0  0  0  0  0  0  0  0  0  0  0
    9.4702    2.8101   -2.3179 H   0  0  0  0  0  0  0  0  0  0  0  0
    9.9028    5.1542   -3.2550 H   0  0  0  0  0  0  0  0  0  0  0  0
   10.3918    4.3768   -4.7404 H   0  0  0  0  0  0  0  0  0  0  0  0
   12.1697    3.0847   -3.6825 H   0  0  0  0  0  0  0  0  0  0  0  0
   11.4486    3.2689   -2.0950 H   0  0  0  0  0  0  0  0  0  0  0  0
   12.9893    4.7912   -1.7081 H   0  0  0  0  0  0  0  0  0  0  0  0
   11.7529    5.7368   -2.4928 H   0  0  0  0  0  0  0  0  0  0  0  0
   13.6038    4.7443   -4.4898 H   0  0  0  0  0  0  0  0  0  0  0  0
   14.4640    5.5703   -3.1907 H   0  0  0  0  0  0  0  0  0  0  0  0
   12.0143    6.8236   -4.5475 H   0  0  0  0  0  0  0  0  0  0  0  0
   13.6815    7.1236   -5.0483 H   0  0  0  0  0  0  0  0  0  0  0  0
    9.6999    5.1073    0.7229 H   0  0  0  0  0  0  0  0  0  0  0  0
    8.5682    3.3433   -0.5965 H   0  0  0  0  0  0  0  0  0  0  0  0
  1  2  1  0  0  0  0
  1 35  1  0  0  0  0
  1 36  1  0  0  0  0
  1 37  1  0  0  0  0
  2  3  2  3  0  0  0
  2 34  1  0  0  0  0
  3  4  1  0  0  0  0
  3 38  1  0  0  0  0
  4  5  2  3  0  0  0
  4 39  1  0  0  0  0
  5  6  1  0  0  0  0
  5 20  1  0  0  0  0
  6  7  1  0  0  0  0
  6 40  1  0  0  0  0
  6 41  1  0  0  0  0
  7  8  1  0  0  0  0
  7 42  1  0  0  0  0
  7 43  1  0  0  0  0
  8  9  1  0  0  0  0
  8 44  1  0  0  0  0
  8 45  1  0  0  0  0
  9 10  1  0  0  0  0
  9 46  1  0  0  0  0
  9 47  1  0  0  0  0
 10 11  1  0  0  0  0
 10 48  1  0  0  0  0
 10 49  1  0  0  0  0
 11 12  1  0  0  0  0
 11 50  1  0  0  0  0
 11 51  1  0  0  0  0
 12 13  1  0  0  0  0
 12 52  1  0  0  0  0
 12 53  1  0  0  0  0
 13 14  1  0  0  0  0
 13 54  1  0  0  0  0
 13 55  1  0  0  0  0
 14 15  1  0  0  0  0
 14 56  1  0  0  0  0
 14 57  1  0  0  0  0
 15 16  1  0  0  0  0
 15 58  1  0  0  0  0
 15 59  1  0  0  0  0
 16 17  1  0  0  0  0
 16 60  1  0  0  0  0
 16 61  1  0  0  0  0
 17 18  1  0  0  0  0
 17 62  1  0  0  0  0
 17 63  1  0  0  0  0
 18 19  1  0  0  0  0
 19 64  1  0  0  0  0
 20 21  1  0  0  0  0
 20 65  1  0  0  0  0
 20 66  1  0  0  0  0
 21 22  1  0  0  0  0
 21 67  1  0  0  0  0
 21 68  1  0  0  0  0
 22 23  1  0  0  0  0
 22 69  1  0  0  0  0
 22 70  1  0  0  0  0
 23 24  1  0  0  0  0
 23 71  1  0  0  0  0
 23 72  1  0  0  0  0
 24 25  1  0  0  0  0
 24 73  1  0  0  0  0
 24 74  1  0  0  0  0
 25 26  1  0  0  0  0
 25 75  1  0  0  0  0
 25 76  1  0  0  0  0
 26 27  1  0  0  0  0
 26 77  1  0  0  0  0
 26 78  1  0  0  0  0
 27 28  1  0  0  0  0
 27 79  1  0  0  0  0
 27 80  1  0  0  0  0
 28 29  1  0  0  0  0
 29 30  1  0  0  0  0
 30 31  1  0  0  0  0
 31 32  1  0  0  0  0
 32 33  1  0  0  0  0
 33 34  2  3  0  0  0
 33 81  1  0  0  0  0
 34 82  1  0  0  0  0
M  END
$$$$
