
 OpenBabel04232216403D

162161  0  0  0  0  0  0  0  0999 V2000
   10.0940   -9.1750   -6.0434 C   0  0  0  0  0  0  0  0  0  0  0  0
    9.2000   -8.2841   -5.5983 C   0  0  0  0  0  0  0  0  0  0  0  0
    9.5721   -7.0931   -4.7712 C   0  0  0  0  0  0  0  0  0  0  0  0
    9.2085   -5.7964   -5.4786 C   0  0  0  0  0  0  0  0  0  0  0  0
    9.5972   -4.5981   -4.6216 C   0  0  0  0  0  0  0  0  0  0  0  0
    9.2326   -3.2868   -5.3053 C   0  0  0  0  0  0  0  0  0  0  0  0
    9.6167   -2.1247   -4.4105 C   0  0  0  0  0  0  0  0  0  0  0  0
    9.2487   -0.9088   -5.0533 O   0  0  0  0  0  0  0  0  0  0  0  0
    9.6634    0.2231   -4.2906 C   0  0  0  0  0  0  0  0  0  0  0  0
   11.0712    0.2866   -4.0658 O   0  0  0  0  0  0  0  0  0  0  0  0
   11.7828    0.3170   -5.2968 C   0  0  0  0  0  0  0  0  0  0  0  0
   13.2659    0.2775   -4.9983 C   0  0  0  0  0  0  0  0  0  0  0  0
   14.0406    0.3398   -6.3021 C   0  0  0  0  0  0  0  0  0  0  0  0
   15.5324    0.3220   -6.0341 C   0  0  0  0  0  0  0  0  0  0  0  0
   16.2924    0.3986   -7.3452 C   0  0  0  0  0  0  0  0  0  0  0  0
   17.7851    0.3872   -7.0768 C   0  0  0  0  0  0  0  0  0  0  0  0
   18.5472    0.4666   -8.3858 C   0  0  0  0  0  0  0  0  0  0  0  0
   20.0396    0.4569   -8.1137 C   0  0  0  0  0  0  0  0  0  0  0  0
   20.8023    0.5383   -9.4222 C   0  0  0  0  0  0  0  0  0  0  0  0
   22.2943    0.5267   -9.1500 C   0  0  0  0  0  0  0  0  0  0  0  0
   23.0569    0.6100  -10.4584 C   0  0  0  0  0  0  0  0  0  0  0  0
   24.5490    0.5964  -10.1863 C   0  0  0  0  0  0  0  0  0  0  0  0
   25.3115    0.6816  -11.4946 C   0  0  0  0  0  0  0  0  0  0  0  0
   26.8035    0.6659  -11.2226 C   0  0  0  0  0  0  0  0  0  0  0  0
   27.5659    0.7513  -12.5309 C   0  0  0  0  0  0  0  0  0  0  0  0
   29.0579    0.7336  -12.2590 C   0  0  0  0  0  0  0  0  0  0  0  0
   29.8203    0.8189  -13.5673 C   0  0  0  0  0  0  0  0  0  0  0  0
   31.3123    0.8011  -13.2954 C   0  0  0  0  0  0  0  0  0  0  0  0
   32.0746    0.8864  -14.6037 C   0  0  0  0  0  0  0  0  0  0  0  0
   33.5665    0.8686  -14.3317 C   0  0  0  0  0  0  0  0  0  0  0  0
   34.3288    0.9541  -15.6400 C   0  0  0  0  0  0  0  0  0  0  0  0
   35.8204    0.9363  -15.3678 C   0  0  0  0  0  0  0  0  0  0  0  0
   36.5821    1.0236  -16.6758 C   0  0  0  0  0  0  0  0  0  0  0  0
   38.0730    1.0059  -16.4030 C   0  0  0  0  0  0  0  0  0  0  0  0
   38.8333    1.0932  -17.7108 C   0  0  0  0  0  0  0  0  0  0  0  0
   40.3221    1.0751  -17.4360 C   0  0  0  0  0  0  0  0  0  0  0  0
   41.0781    1.1605  -18.7433 C   0  0  0  0  0  0  0  0  0  0  0  0
   42.5592    1.1402  -18.4631 C   0  0  0  0  0  0  0  0  0  0  0  0
   43.2904    1.2271  -19.7669 C   0  0  0  0  0  0  0  0  0  0  0  0
   44.7893    1.2088  -19.4869 C   0  0  0  0  0  0  0  0  0  0  0  0
   45.5132    1.2985  -20.8013 C   0  0  0  0  0  0  0  0  0  0  0  0
   46.9688    1.2813  -20.5072 C   0  0  0  0  0  0  0  0  0  0  0  0
   47.6740    1.3733  -21.8024 C   0  0  0  0  0  0  0  0  0  0  0  0
   49.0131    1.3464  -21.3810 O   0  0  0  0  0  0  0  0  0  0  0  0
   49.6954    1.3960  -22.6208 O   0  0  0  0  0  0  0  0  0  0  0  0
   51.0299    1.3853  -22.3443 O   0  0  0  0  0  0  0  0  0  0  0  0
   51.6937    1.5236  -23.5797 O   0  0  0  0  0  0  0  0  0  0  0  0
   53.0391    1.4917  -23.3084 O   0  0  0  0  0  0  0  0  0  0  0  0
   53.6964    1.4717  -24.5252 O   0  0  0  0  0  0  0  0  0  0  0  0
   55.0173    1.5726  -24.2048 O   0  0  0  0  0  0  0  0  0  0  0  0
   55.6803    1.7047  -25.4284 O   0  0  0  0  0  0  0  0  0  0  0  0
   57.0142    1.5947  -25.1499 O   0  0  0  0  0  0  0  0  0  0  0  0
   57.6653    1.6492  -26.3555 O   0  0  0  0  0  0  0  0  0  0  0  0
   59.0038    1.7133  -26.0474 O   0  0  0  0  0  0  0  0  0  0  0  0
   59.6457    1.8179  -27.2554 O   0  0  0  0  0  0  0  0  0  0  0  0
   60.9804    1.7115  -26.9603 O   0  0  0  0  0  0  0  0  0  0  0  0
   61.6218    1.7966  -28.1661 O   0  0  0  0  0  0  0  0  0  0  0  0
   62.9532    1.8551  -27.8593 O   0  0  0  0  0  0  0  0  0  0  0  0
   63.5915    1.9458  -29.0648 O   0  0  0  0  0  0  0  0  0  0  0  0
   64.9265    1.8881  -28.7631 O   0  0  0  0  0  0  0  0  0  0  0  0
   65.5651    1.9046  -29.9716 O   0  0  0  0  0  0  0  0  0  0  0  0
   66.8992    1.8782  -29.6689 O   0  0  0  0  0  0  0  0  0  0  0  0
   67.5372    2.0575  -30.8649 O   0  0  0  0  0  0  0  0  0  0  0  0
   68.8713    2.1015  -30.5591 O   0  0  0  0  0  0  0  0  0  0  0  0
   69.5026    2.1434  -31.7763 O   0  0  0  0  0  0  0  0  0  0  0  0
   70.8367    2.0325  -31.4883 O   0  0  0  0  0  0  0  0  0  0  0  0
   71.4758    2.0698  -32.7024 O   0  0  0  0  0  0  0  0  0  0  0  0
   72.8176    2.1053  -32.4125 O   0  0  0  0  0  0  0  0  0  0  0  0
   73.4545    2.3147  -33.6132 O   0  0  0  0  0  0  0  0  0  0  0  0
   74.8048    2.2773  -33.3234 O   0  0  0  0  0  0  0  0  0  0  0  0
   75.4585    2.2691  -34.5402 O   0  0  0  0  0  0  0  0  0  0  0  0
   76.8115    2.2559  -34.2529 O   0  0  0  0  0  0  0  0  0  0  0  0
   77.4846    2.4531  -35.4512 O   0  0  0  0  0  0  0  0  0  0  0  0
   78.8558    2.4481  -35.1591 O   0  0  0  0  0  0  0  0  0  0  0  0
   79.5361    2.3857  -36.3697 O   0  0  0  0  0  0  0  0  0  0  0  0
   80.9304    2.3536  -36.0843 O   0  0  0  0  0  0  0  0  0  0  0  0
   81.6283    2.7537  -37.2465 O   0  0  0  0  0  0  0  0  0  0  0  0
   83.0273    2.6254  -37.0022 O   0  0  0  0  0  0  0  0  0  0  0  0
   83.7208    2.5446  -38.2615 O   0  0  0  0  0  0  0  0  0  0  0  0
   83.2373    1.4104  -39.0236 O   0  0  0  0  0  0  0  0  0  0  0  0
    9.7956  -10.0271   -6.6476 H   0  0  0  0  0  0  0  0  0  0  0  0
   11.1512   -9.0699   -5.8119 H   0  0  0  0  0  0  0  0  0  0  0  0
    8.1502   -8.4234   -5.8354 H   0  0  0  0  0  0  0  0  0  0  0  0
   10.6508   -7.1088   -4.5323 H   0  0  0  0  0  0  0  0  0  0  0  0
    9.0446   -7.1507   -3.8117 H   0  0  0  0  0  0  0  0  0  0  0  0
    8.1346   -5.7623   -5.6847 H   0  0  0  0  0  0  0  0  0  0  0  0
    9.7246   -5.7322   -6.4492 H   0  0  0  0  0  0  0  0  0  0  0  0
   10.6761   -4.6196   -4.4206 H   0  0  0  0  0  0  0  0  0  0  0  0
    9.0894   -4.6565   -3.6514 H   0  0  0  0  0  0  0  0  0  0  0  0
    8.1593   -3.2456   -5.5262 H   0  0  0  0  0  0  0  0  0  0  0  0
    9.7473   -3.1994   -6.2704 H   0  0  0  0  0  0  0  0  0  0  0  0
   10.6986   -2.1530   -4.2356 H   0  0  0  0  0  0  0  0  0  0  0  0
    9.1029   -2.1909   -3.4453 H   0  0  0  0  0  0  0  0  0  0  0  0
    9.1587    0.2085   -3.3195 H   0  0  0  0  0  0  0  0  0  0  0  0
    9.3461    1.1293   -4.8168 H   0  0  0  0  0  0  0  0  0  0  0  0
   11.5213    1.2301   -5.8423 H   0  0  0  0  0  0  0  0  0  0  0  0
   11.5230   -0.5498   -5.9161 H   0  0  0  0  0  0  0  0  0  0  0  0
   13.5134   -0.6390   -4.4467 H   0  0  0  0  0  0  0  0  0  0  0  0
   13.5374    1.1119   -4.3411 H   0  0  0  0  0  0  0  0  0  0  0  0
   13.7723    1.2521   -6.8493 H   0  0  0  0  0  0  0  0  0  0  0  0
   13.7680   -0.5100   -6.9414 H   0  0  0  0  0  0  0  0  0  0  0  0
   15.8053   -0.5944   -5.4964 H   0  0  0  0  0  0  0  0  0  0  0  0
   15.8060    1.1696   -5.3937 H   0  0  0  0  0  0  0  0  0  0  0  0
   16.0174    1.3134   -7.8855 H   0  0  0  0  0  0  0  0  0  0  0  0
   16.0215   -0.4494   -7.9867 H   0  0  0  0  0  0  0  0  0  0  0  0
   18.0608   -0.5282   -6.5387 H   0  0  0  0  0  0  0  0  0  0  0  0
   18.0556    1.2349   -6.4350 H   0  0  0  0  0  0  0  0  0  0  0  0
   18.2714    1.3815   -8.9246 H   0  0  0  0  0  0  0  0  0  0  0  0
   18.2785   -0.3815   -9.0275 H   0  0  0  0  0  0  0  0  0  0  0  0
   20.3157   -0.4586   -7.5760 H   0  0  0  0  0  0  0  0  0  0  0  0
   20.3082    1.3043   -7.4711 H   0  0  0  0  0  0  0  0  0  0  0  0
   20.5271    1.4545   -9.9591 H   0  0  0  0  0  0  0  0  0  0  0  0
   20.5329   -0.3084  -10.0656 H   0  0  0  0  0  0  0  0  0  0  0  0
   22.5697   -0.3902   -8.6142 H   0  0  0  0  0  0  0  0  0  0  0  0
   22.5638    1.3725   -8.5055 H   0  0  0  0  0  0  0  0  0  0  0  0
   22.7826    1.5276  -10.9934 H   0  0  0  0  0  0  0  0  0  0  0  0
   22.7867   -0.2351  -11.1035 H   0  0  0  0  0  0  0  0  0  0  0  0
   24.8234   -0.3218   -9.6524 H   0  0  0  0  0  0  0  0  0  0  0  0
   24.8193    1.4406   -9.5401 H   0  0  0  0  0  0  0  0  0  0  0  0
   25.0380    1.6005  -12.0277 H   0  0  0  0  0  0  0  0  0  0  0  0
   25.0403   -0.1619  -12.1414 H   0  0  0  0  0  0  0  0  0  0  0  0
   27.0768   -0.2530  -10.6895 H   0  0  0  0  0  0  0  0  0  0  0  0
   27.0748    1.5094  -10.5758 H   0  0  0  0  0  0  0  0  0  0  0  0
   27.2935    1.6708  -13.0633 H   0  0  0  0  0  0  0  0  0  0  0  0
   27.2937   -0.0915  -13.1782 H   0  0  0  0  0  0  0  0  0  0  0  0
   29.3303   -0.1860  -11.7265 H   0  0  0  0  0  0  0  0  0  0  0  0
   29.3302    1.5763  -11.6116 H   0  0  0  0  0  0  0  0  0  0  0  0
   29.5480    1.7385  -14.0997 H   0  0  0  0  0  0  0  0  0  0  0  0
   29.5480   -0.0238  -14.2146 H   0  0  0  0  0  0  0  0  0  0  0  0
   31.5846   -0.1185  -12.7629 H   0  0  0  0  0  0  0  0  0  0  0  0
   31.5847    1.6438  -12.6481 H   0  0  0  0  0  0  0  0  0  0  0  0
   31.8024    1.8061  -15.1362 H   0  0  0  0  0  0  0  0  0  0  0  0
   31.8023    0.0437  -15.2511 H   0  0  0  0  0  0  0  0  0  0  0  0
   33.8390   -0.0510  -13.7994 H   0  0  0  0  0  0  0  0  0  0  0  0
   33.8389    1.7113  -13.6844 H   0  0  0  0  0  0  0  0  0  0  0  0
   34.0565    1.8738  -16.1724 H   0  0  0  0  0  0  0  0  0  0  0  0
   34.0567    0.1114  -16.2875 H   0  0  0  0  0  0  0  0  0  0  0  0
   36.0933    0.0161  -14.8367 H   0  0  0  0  0  0  0  0  0  0  0  0
   36.0929    1.7783  -14.7195 H   0  0  0  0  0  0  0  0  0  0  0  0
   36.3101    1.9440  -17.2073 H   0  0  0  0  0  0  0  0  0  0  0  0
   36.3105    0.1817  -17.3246 H   0  0  0  0  0  0  0  0  0  0  0  0
   38.3465    0.0856  -15.8723 H   0  0  0  0  0  0  0  0  0  0  0  0
   38.3461    1.8478  -15.7549 H   0  0  0  0  0  0  0  0  0  0  0  0
   38.5623    2.0136  -18.2427 H   0  0  0  0  0  0  0  0  0  0  0  0
   38.5626    0.2512  -18.3600 H   0  0  0  0  0  0  0  0  0  0  0  0
   40.5969    0.1553  -16.9050 H   0  0  0  0  0  0  0  0  0  0  0  0
   40.5969    1.9179  -16.7898 H   0  0  0  0  0  0  0  0  0  0  0  0
   40.8106    2.0811  -19.2766 H   0  0  0  0  0  0  0  0  0  0  0  0
   40.8088    0.3185  -19.3931 H   0  0  0  0  0  0  0  0  0  0  0  0
   42.8399    0.2191  -17.9370 H   0  0  0  0  0  0  0  0  0  0  0  0
   42.8415    1.9821  -17.8185 H   0  0  0  0  0  0  0  0  0  0  0  0
   43.0417    2.1486  -20.3058 H   0  0  0  0  0  0  0  0  0  0  0  0
   43.0420    0.3854  -20.4234 H   0  0  0  0  0  0  0  0  0  0  0  0
   45.0643    0.2877  -18.9620 H   0  0  0  0  0  0  0  0  0  0  0  0
   45.0633    2.0508  -18.8424 H   0  0  0  0  0  0  0  0  0  0  0  0
   45.2406    2.2211  -21.3322 H   0  0  0  0  0  0  0  0  0  0  0  0
   45.2435    0.4546  -21.4512 H   0  0  0  0  0  0  0  0  0  0  0  0
   47.2664    0.3660  -19.9728 H   0  0  0  0  0  0  0  0  0  0  0  0
   47.2632    2.1177  -19.8548 H   0  0  0  0  0  0  0  0  0  0  0  0
   47.4636    2.3032  -22.3356 H   0  0  0  0  0  0  0  0  0  0  0  0
   47.4661    0.5154  -22.4554 H   0  0  0  0  0  0  0  0  0  0  0  0
   83.6726    1.6708  -39.8439 H   0  0  0  0  0  0  0  0  0  0  0  0
  1  2  2  0  0  0  0
  1 81  1  0  0  0  0
  1 82  1  0  0  0  0
  2  3  1  0  0  0  0
  2 83  1  0  0  0  0
  3  4  1  0  0  0  0
  3 84  1  0  0  0  0
  3 85  1  0  0  0  0
  4  5  1  0  0  0  0
  4 86  1  0  0  0  0
  4 87  1  0  0  0  0
  5  6  1  0  0  0  0
  5 88  1  0  0  0  0
  5 89  1  0  0  0  0
  6  7  1  0  0  0  0
  6 90  1  0  0  0  0
  6 91  1  0  0  0  0
  7  8  1  0  0  0  0
  7 92  1  0  0  0  0
  7 93  1  0  0  0  0
  8  9  1  0  0  0  0
  9 10  1  0  0  0  0
  9 94  1  0  0  0  0
  9 95  1  0  0  0  0
 10 11  1  0  0  0  0
 11 12  1  0  0  0  0
 11 96  1  0  0  0  0
 11 97  1  0  0  0  0
 12 13  1  0  0  0  0
 12 98  1  0  0  0  0
 12 99  1  0  0  0  0
 13 14  1  0  0  0  0
 13100  1  0  0  0  0
 13101  1  0  0  0  0
 14 15  1  0  0  0  0
 14102  1  0  0  0  0
 14103  1  0  0  0  0
 15 16  1  0  0  0  0
 15104  1  0  0  0  0
 15105  1  0  0  0  0
 16 17  1  0  0  0  0
 16106  1  0  0  0  0
 16107  1  0  0  0  0
 17 18  1  0  0  0  0
 17108  1  0  0  0  0
 17109  1  0  0  0  0
 18 19  1  0  0  0  0
 18110  1  0  0  0  0
 18111  1  0  0  0  0
 19 20  1  0  0  0  0
 19112  1  0  0  0  0
 19113  1  0  0  0  0
 20 21  1  0  0  0  0
 20114  1  0  0  0  0
 20115  1  0  0  0  0
 21 22  1  0  0  0  0
 21116  1  0  0  0  0
 21117  1  0  0  0  0
 22 23  1  0  0  0  0
 22118  1  0  0  0  0
 22119  1  0  0  0  0
 23 24  1  0  0  0  0
 23120  1  0  0  0  0
 23121  1  0  0  0  0
 24 25  1  0  0  0  0
 24122  1  0  0  0  0
 24123  1  0  0  0  0
 25 26  1  0  0  0  0
 25124  1  0  0  0  0
 25125  1  0  0  0  0
 26 27  1  0  0  0  0
 26126  1  0  0  0  0
 26127  1  0  0  0  0
 27 28  1  0  0  0  0
 27128  1  0  0  0  0
 27129  1  0  0  0  0
 28 29  1  0  0  0  0
 28130  1  0  0  0  0
 28131  1  0  0  0  0
 29 30  1  0  0  0  0
 29132  1  0  0  0  0
 29133  1  0  0  0  0
 30 31  1  0  0  0  0
 30134  1  0  0  0  0
 30135  1  0  0  0  0
 31 32  1  0  0  0  0
 31136  1  0  0  0  0
 31137  1  0  0  0  0
 32 33  1  0  0  0  0
 32138  1  0  0  0  0
 32139  1  0  0  0  0
 33 34  1  0  0  0  0
 33140  1  0  0  0  0
 33141  1  0  0  0  0
 34 35  1  0  0  0  0
 34142  1  0  0  0  0
 34143  1  0  0  0  0
 35 36  1  0  0  0  0
 35144  1  0  0  0  0
 35145  1  0  0  0  0
 36 37  1  0  0  0  0
 36146  1  0  0  0  0
 36147  1  0  0  0  0
 37 38  1  0  0  0  0
 37148  1  0  0  0  0
 37149  1  0  0  0  0
 38 39  1  0  0  0  0
 38150  1  0  0  0  0
 38151  1  0  0  0  0
 39 40  1  0  0  0  0
 39152  1  0  0  0  0
 39153  1  0  0  0  0
 40 41  1  0  0  0  0
 40154  1  0  0  0  0
 40155  1  0  0  0  0
 41 42  1  0  0  0  0
 41156  1  0  0  0  0
 41157  1  0  0  0  0
 42 43  1  0  0  0  0
 42158  1  0  0  0  0
 42159  1  0  0  0  0
 43 44  1  0  0  0  0
 43160  1  0  0  0  0
 43161  1  0  0  0  0
 44 45  1  0  0  0  0
 45 46  1  0  0  0  0
 46 47  1  0  0  0  0
 47 48  1  0  0  0  0
 48 49  1  0  0  0  0
 49 50  1  0  0  0  0
 50 51  1  0  0  0  0
 51 52  1  0  0  0  0
 52 53  1  0  0  0  0
 53 54  1  0  0  0  0
 54 55  1  0  0  0  0
 55 56  1  0  0  0  0
 56 57  1  0  0  0  0
 57 58  1  0  0  0  0
 58 59  1  0  0  0  0
 59 60  1  0  0  0  0
 60 61  1  0  0  0  0
 61 62  1  0  0  0  0
 62 63  1  0  0  0  0
 63 64  1  0  0  0  0
 64 65  1  0  0  0  0
 65 66  1  0  0  0  0
 66 67  1  0  0  0  0
 67 68  1  0  0  0  0
 68 69  1  0  0  0  0
 69 70  1  0  0  0  0
 70 71  1  0  0  0  0
 71 72  1  0  0  0  0
 72 73  1  0  0  0  0
 73 74  1  0  0  0  0
 74 75  1  0  0  0  0
 75 76  1  0  0  0  0
 76 77  1  0  0  0  0
 77 78  1  0  0  0  0
 78 79  1  0  0  0  0
 79 80  1  0  0  0  0
 80162  1  0  0  0  0
M  END
$$$$
