
 OpenBabel04232216463D

 44 45  0  0  0  0  0  0  0  0999 V2000
   15.2494    0.8129    6.0714 C   0  0  0  0  0  0  0  0  0  0  0  0
   13.8300    0.9476    5.5050 C   0  0  0  0  0  0  0  0  0  0  0  0
   12.8791    0.5992    6.5096 C   0  0  0  0  0  0  0  0  0  0  0  0
   12.0685    1.4686    7.1311 C   0  0  0  0  0  0  0  0  0  0  0  0
   12.2389    2.9819    6.9937 C   0  0  0  0  0  0  0  0  0  0  0  0
   11.7280    3.8959    8.1143 C   0  0  0  0  0  0  0  0  0  0  0  0
   11.8263    5.3825    7.8188 C   0  0  0  0  0  0  0  0  0  0  0  0
   12.4512    5.9805    6.7904 C   0  0  0  0  0  0  0  0  0  0  0  0
   10.7006    0.8803    7.4579 C   0  0  0  0  0  0  0  0  0  0  0  0
    9.9204    1.1190    6.1727 C   0  0  0  0  0  0  0  0  0  0  0  0
    9.3369   -0.0779    5.4490 C   0  0  0  0  0  0  0  0  0  0  0  0
    8.7780   -1.0223    5.9813 O   0  0  0  0  0  0  0  0  0  0  0  0
    9.3469    0.0957    3.9481 C   0  0  0  0  0  0  0  0  0  0  0  0
   10.6170    0.1443    3.4786 C   0  0  0  0  0  0  0  0  0  0  0  0
   11.1911    1.4254    3.0592 C   0  0  0  0  0  0  0  0  0  0  0  0
   10.3987    2.4639    2.2792 C   0  0  0  0  0  0  0  0  0  0  0  0
   10.8140    3.6149    2.1516 O   0  0  0  0  0  0  0  0  0  0  0  0
    9.2511    2.1378    1.6383 O   0  0  0  0  0  0  0  0  0  0  0  0
    8.2451    1.1700    1.9975 C   0  0  0  0  0  0  0  0  0  0  0  0
    8.1616    0.8857    3.4797 C   0  0  0  0  0  0  0  0  0  0  0  0
   12.4139    1.8588    3.4881 C   0  0  0  0  0  0  0  0  0  0  0  0
   13.5914    1.3972    4.2573 C   0  0  0  0  0  0  0  0  0  0  0  0
   15.4179   -0.1972    6.4571 H   0  0  0  0  0  0  0  0  0  0  0  0
   15.3811    1.5107    6.9055 H   0  0  0  0  0  0  0  0  0  0  0  0
   16.0290    1.0343    5.3352 H   0  0  0  0  0  0  0  0  0  0  0  0
   12.7302   -0.4774    6.6185 H   0  0  0  0  0  0  0  0  0  0  0  0
   11.7415    3.2853    6.0646 H   0  0  0  0  0  0  0  0  0  0  0  0
   13.3066    3.2019    6.8641 H   0  0  0  0  0  0  0  0  0  0  0  0
   12.2778    3.6930    9.0411 H   0  0  0  0  0  0  0  0  0  0  0  0
   10.6726    3.6778    8.3137 H   0  0  0  0  0  0  0  0  0  0  0  0
   11.3196    6.0241    8.5338 H   0  0  0  0  0  0  0  0  0  0  0  0
   12.9942    5.4267    6.0291 H   0  0  0  0  0  0  0  0  0  0  0  0
   12.4393    7.0643    6.6898 H   0  0  0  0  0  0  0  0  0  0  0  0
   10.2210    1.3611    8.3117 H   0  0  0  0  0  0  0  0  0  0  0  0
   10.7716   -0.1922    7.6897 H   0  0  0  0  0  0  0  0  0  0  0  0
   10.6285    1.5254    5.4543 H   0  0  0  0  0  0  0  0  0  0  0  0
    9.1929    1.9273    6.2653 H   0  0  0  0  0  0  0  0  0  0  0  0
   11.3594   -0.5113    3.9336 H   0  0  0  0  0  0  0  0  0  0  0  0
    8.3777    0.2678    1.3925 H   0  0  0  0  0  0  0  0  0  0  0  0
    7.2872    1.6113    1.6871 H   0  0  0  0  0  0  0  0  0  0  0  0
    7.2526    0.2971    3.6690 H   0  0  0  0  0  0  0  0  0  0  0  0
    8.0656    1.8207    4.0467 H   0  0  0  0  0  0  0  0  0  0  0  0
   12.6711    2.8835    3.1574 H   0  0  0  0  0  0  0  0  0  0  0  0
   14.4811    1.6383    3.6724 H   0  0  0  0  0  0  0  0  0  0  0  0
  1  2  1  0  0  0  0
  1 23  1  0  0  0  0
  1 24  1  0  0  0  0
  1 25  1  0  0  0  0
  2  3  1  0  0  0  0
  2 22  2  3  0  0  0
  3  4  2  3  0  0  0
  3 26  1  0  0  0  0
  4  5  1  0  0  0  0
  4  9  1  0  0  0  0
  5  6  1  0  0  0  0
  5 27  1  0  0  0  0
  5 28  1  0  0  0  0
  6  7  1  0  0  0  0
  6 29  1  0  0  0  0
  6 30  1  0  0  0  0
  7  8  2  0  0  0  0
  7 31  1  0  0  0  0
  8 32  1  0  0  0  0
  8 33  1  0  0  0  0
  9 10  1  0  0  0  0
  9 34  1  0  0  0  0
  9 35  1  0  0  0  0
 10 11  1  0  0  0  0
 10 36  1  0  0  0  0
 10 37  1  0  0  0  0
 11 12  2  0  0  0  0
 11 13  1  0  0  0  0
 13 14  2  0  0  0  0
 13 20  1  0  0  0  0
 14 15  1  0  0  0  0
 14 38  1  0  0  0  0
 15 16  1  0  0  0  0
 15 21  2  3  0  0  0
 16 17  2  0  0  0  0
 16 18  1  0  0  0  0
 18 19  1  0  0  0  0
 19 20  1  0  0  0  0
 19 39  1  0  0  0  0
 19 40  1  0  0  0  0
 20 41  1  0  0  0  0
 20 42  1  0  0  0  0
 21 22  1  0  0  0  0
 21 43  1  0  0  0  0
 22 44  1  0  0  0  0
M  END
$$$$
