
 OpenBabel04232216543D

 48 49  0  0  0  0  0  0  0  0999 V2000
    0.8530   -2.6446    2.1328 C   0  0  0  0  0  0  0  0  0  0  0  0
    1.7091   -1.4364    2.4655 C   0  0  0  0  0  0  0  0  0  0  0  0
    3.1589   -1.6978    2.0854 C   0  0  0  0  0  0  0  0  0  0  0  0
    4.0686   -0.5333    2.4318 C   0  0  0  0  0  0  0  0  0  0  0  0
    4.1608   -0.0504    3.8087 N   0  0  0  0  0  0  0  0  0  0  0  0
    4.5218    1.3063    3.8891 C   0  0  0  0  0  0  0  0  0  0  0  0
    4.2066    2.1920    3.0978 O   0  0  0  0  0  0  0  0  0  0  0  0
    5.3865    1.5343    4.9315 O   0  0  0  0  0  0  0  0  0  0  0  0
    5.5773    0.2396    5.3936 C   0  0  0  0  0  0  0  0  0  0  0  0
    6.7768    0.0319    6.1555 C   0  0  0  0  0  0  0  0  0  0  0  0
    6.7507    0.7093    7.5007 C   0  0  0  0  0  0  0  0  0  0  0  0
    7.7212   -0.7985    5.6319 C   0  0  0  0  0  0  0  0  0  0  0  0
    7.7652   -1.2040    4.1678 C   0  0  0  0  0  0  0  0  0  0  0  0
    8.5538   -1.6233    6.5269 C   0  0  0  0  0  0  0  0  0  0  0  0
    8.1023   -2.8981    6.6573 C   0  0  0  0  0  0  0  0  0  0  0  0
    8.2321   -3.9706    5.6028 C   0  0  0  0  0  0  0  0  0  0  0  0
    8.6767   -5.1891    6.1929 O   0  0  0  0  0  0  0  0  0  0  0  0
    7.0655   -3.0944    7.6729 C   0  0  0  0  0  0  0  0  0  0  0  0
    7.6391   -3.3260    9.0518 C   0  0  0  0  0  0  0  0  0  0  0  0
    5.7375   -3.0400    7.4102 C   0  0  0  0  0  0  0  0  0  0  0  0
    5.0370   -3.0051    6.1233 C   0  0  0  0  0  0  0  0  0  0  0  0
    4.6866   -2.1264    5.1458 C   0  0  0  0  0  0  0  0  0  0  0  0
    4.7843   -0.6997    4.8674 C   0  0  0  0  0  0  0  0  0  0  0  0
   -0.1945   -2.4486    2.3769 H   0  0  0  0  0  0  0  0  0  0  0  0
    1.1822   -3.5185    2.7043 H   0  0  0  0  0  0  0  0  0  0  0  0
    0.9189   -2.8884    1.0673 H   0  0  0  0  0  0  0  0  0  0  0  0
    1.6275   -1.2157    3.5361 H   0  0  0  0  0  0  0  0  0  0  0  0
    1.3352   -0.5614    1.9216 H   0  0  0  0  0  0  0  0  0  0  0  0
    3.2142   -1.8450    0.9975 H   0  0  0  0  0  0  0  0  0  0  0  0
    3.5193   -2.6343    2.5122 H   0  0  0  0  0  0  0  0  0  0  0  0
    3.7506    0.3034    1.7948 H   0  0  0  0  0  0  0  0  0  0  0  0
    5.0919   -0.7583    2.1021 H   0  0  0  0  0  0  0  0  0  0  0  0
    6.4626    1.7623    7.3800 H   0  0  0  0  0  0  0  0  0  0  0  0
    7.7318    0.7336    7.9810 H   0  0  0  0  0  0  0  0  0  0  0  0
    6.0312    0.2430    8.1806 H   0  0  0  0  0  0  0  0  0  0  0  0
    7.2489   -2.1515    3.9839 H   0  0  0  0  0  0  0  0  0  0  0  0
    7.3022   -0.4573    3.5153 H   0  0  0  0  0  0  0  0  0  0  0  0
    8.8001   -1.3059    3.8326 H   0  0  0  0  0  0  0  0  0  0  0  0
    8.6644   -1.0850    7.4723 H   0  0  0  0  0  0  0  0  0  0  0  0
    7.2905   -4.1745    5.0850 H   0  0  0  0  0  0  0  0  0  0  0  0
    8.9754   -3.6933    4.8495 H   0  0  0  0  0  0  0  0  0  0  0  0
    7.9111   -5.5559    6.6659 H   0  0  0  0  0  0  0  0  0  0  0  0
    7.8048   -2.3733    9.5637 H   0  0  0  0  0  0  0  0  0  0  0  0
    8.6072   -3.8418    8.9972 H   0  0  0  0  0  0  0  0  0  0  0  0
    6.9871   -3.9506    9.6723 H   0  0  0  0  0  0  0  0  0  0  0  0
    5.0635   -3.2358    8.2483 H   0  0  0  0  0  0  0  0  0  0  0  0
    4.6470   -4.0171    5.9427 H   0  0  0  0  0  0  0  0  0  0  0  0
    4.0929   -2.6221    4.3888 H   0  0  0  0  0  0  0  0  0  0  0  0
  1  2  1  0  0  0  0
  1 24  1  0  0  0  0
  1 25  1  0  0  0  0
  1 26  1  0  0  0  0
  2  3  1  0  0  0  0
  2 27  1  0  0  0  0
  2 28  1  0  0  0  0
  3  4  1  0  0  0  0
  3 29  1  0  0  0  0
  3 30  1  0  0  0  0
  4  5  1  0  0  0  0
  4 31  1  0  0  0  0
  4 32  1  0  0  0  0
  5  6  1  0  0  0  0
  5 23  1  0  0  0  0
  6  7  2  0  0  0  0
  6  8  1  0  0  0  0
  8  9  1  0  0  0  0
  9 10  1  0  0  0  0
  9 23  2  0  0  0  0
 10 11  1  0  0  0  0
 10 12  2  0  0  0  0
 11 33  1  0  0  0  0
 11 34  1  0  0  0  0
 11 35  1  0  0  0  0
 12 13  1  0  0  0  0
 12 14  1  0  0  0  0
 13 36  1  0  0  0  0
 13 37  1  0  0  0  0
 13 38  1  0  0  0  0
 14 15  2  0  0  0  0
 14 39  1  0  0  0  0
 15 16  1  0  0  0  0
 15 18  1  0  0  0  0
 16 17  1  0  0  0  0
 16 40  1  0  0  0  0
 16 41  1  0  0  0  0
 17 42  1  0  0  0  0
 18 19  1  0  0  0  0
 18 20  2  0  0  0  0
 19 43  1  0  0  0  0
 19 44  1  0  0  0  0
 19 45  1  0  0  0  0
 20 21  1  0  0  0  0
 20 46  1  0  0  0  0
 21 22  2  0  0  0  0
 21 47  1  0  0  0  0
 22 23  1  0  0  0  0
 22 48  1  0  0  0  0
M  END
$$$$
