
 OpenBabel04232217033D

 85 84  0  0  0  0  0  0  0  0999 V2000
    6.7092   -7.6943   -1.0998 S   0  0  0  0  0  0  0  0  0  0  0  0
    5.9929   -6.7914   -2.7952 S   0  0  0  0  0  0  0  0  0  0  0  0
    6.3790   -4.7871   -2.5889 S   0  0  0  0  0  0  0  0  0  0  0  0
    8.4227   -4.6113   -2.4866 S   0  0  0  0  0  0  0  0  0  0  0  0
    9.0168   -5.1602   -4.0980 C   0  0  0  0  0  0  0  0  0  0  0  0
    8.4650   -4.2955   -5.5698 S   0  0  0  0  0  0  0  0  0  0  0  0
    9.0862   -2.3549   -5.3352 S   0  0  0  0  0  0  0  0  0  0  0  0
   11.1465   -2.3681   -5.3445 S   0  0  0  0  0  0  0  0  0  0  0  0
   11.7989   -3.0280   -7.1916 S   0  0  0  0  0  0  0  0  0  0  0  0
   13.8890   -3.0488   -7.1232 S   0  0  0  0  0  0  0  0  0  0  0  0
   14.5761   -3.8192   -8.9449 S   0  0  0  0  0  0  0  0  0  0  0  0
   16.6798   -3.8106   -8.9280 S   0  0  0  0  0  0  0  0  0  0  0  0
   17.3685   -4.5879  -10.7624 S   0  0  0  0  0  0  0  0  0  0  0  0
   19.4768   -4.5827  -10.7502 S   0  0  0  0  0  0  0  0  0  0  0  0
   20.1665   -5.3600  -12.5853 S   0  0  0  0  0  0  0  0  0  0  0  0
   22.2756   -5.3548  -12.5730 S   0  0  0  0  0  0  0  0  0  0  0  0
   22.9660   -6.1321  -14.4082 S   0  0  0  0  0  0  0  0  0  0  0  0
   25.0753   -6.1269  -14.3960 S   0  0  0  0  0  0  0  0  0  0  0  0
   25.7660   -6.9043  -16.2313 S   0  0  0  0  0  0  0  0  0  0  0  0
   27.8753   -6.8991  -16.2191 S   0  0  0  0  0  0  0  0  0  0  0  0
   28.5659   -7.6765  -18.0544 S   0  0  0  0  0  0  0  0  0  0  0  0
   30.6753   -7.6714  -18.0422 S   0  0  0  0  0  0  0  0  0  0  0  0
   31.3659   -8.4487  -19.8775 S   0  0  0  0  0  0  0  0  0  0  0  0
   33.4753   -8.4436  -19.8653 S   0  0  0  0  0  0  0  0  0  0  0  0
   34.1659   -9.2209  -21.7006 S   0  0  0  0  0  0  0  0  0  0  0  0
   36.2753   -9.2158  -21.6884 S   0  0  0  0  0  0  0  0  0  0  0  0
   36.9659   -9.9931  -23.5237 S   0  0  0  0  0  0  0  0  0  0  0  0
   39.0753   -9.9880  -23.5115 S   0  0  0  0  0  0  0  0  0  0  0  0
   39.7659  -10.7654  -25.3468 S   0  0  0  0  0  0  0  0  0  0  0  0
   41.8753  -10.7602  -25.3346 S   0  0  0  0  0  0  0  0  0  0  0  0
   42.5659  -11.5376  -27.1699 S   0  0  0  0  0  0  0  0  0  0  0  0
   44.6753  -11.5324  -27.1577 S   0  0  0  0  0  0  0  0  0  0  0  0
   45.3659  -12.3098  -28.9930 S   0  0  0  0  0  0  0  0  0  0  0  0
   47.4753  -12.3046  -28.9808 S   0  0  0  0  0  0  0  0  0  0  0  0
   48.1659  -13.0820  -30.8161 S   0  0  0  0  0  0  0  0  0  0  0  0
   50.2753  -13.0768  -30.8039 S   0  0  0  0  0  0  0  0  0  0  0  0
   50.9659  -13.8542  -32.6392 S   0  0  0  0  0  0  0  0  0  0  0  0
   53.0753  -13.8490  -32.6270 S   0  0  0  0  0  0  0  0  0  0  0  0
   53.7659  -14.6264  -34.4623 S   0  0  0  0  0  0  0  0  0  0  0  0
   55.8753  -14.6212  -34.4501 S   0  0  0  0  0  0  0  0  0  0  0  0
   56.5659  -15.3986  -36.2854 S   0  0  0  0  0  0  0  0  0  0  0  0
   58.6752  -15.3934  -36.2732 S   0  0  0  0  0  0  0  0  0  0  0  0
   59.3659  -16.1708  -38.1085 S   0  0  0  0  0  0  0  0  0  0  0  0
   61.4752  -16.1656  -38.0963 S   0  0  0  0  0  0  0  0  0  0  0  0
   62.1659  -16.9430  -39.9316 S   0  0  0  0  0  0  0  0  0  0  0  0
   64.2752  -16.9378  -39.9194 S   0  0  0  0  0  0  0  0  0  0  0  0
   64.9658  -17.7152  -41.7547 S   0  0  0  0  0  0  0  0  0  0  0  0
   67.0752  -17.7100  -41.7425 S   0  0  0  0  0  0  0  0  0  0  0  0
   67.7658  -18.4874  -43.5778 S   0  0  0  0  0  0  0  0  0  0  0  0
   69.8752  -18.4823  -43.5656 S   0  0  0  0  0  0  0  0  0  0  0  0
   70.5658  -19.2596  -45.4009 S   0  0  0  0  0  0  0  0  0  0  0  0
   72.6752  -19.2545  -45.3887 S   0  0  0  0  0  0  0  0  0  0  0  0
   73.3658  -20.0318  -47.2240 S   0  0  0  0  0  0  0  0  0  0  0  0
   75.4752  -20.0267  -47.2118 S   0  0  0  0  0  0  0  0  0  0  0  0
   76.1658  -20.8040  -49.0471 S   0  0  0  0  0  0  0  0  0  0  0  0
   78.2752  -20.7989  -49.0349 S   0  0  0  0  0  0  0  0  0  0  0  0
   78.9658  -21.5762  -50.8702 S   0  0  0  0  0  0  0  0  0  0  0  0
   81.0752  -21.5711  -50.8580 S   0  0  0  0  0  0  0  0  0  0  0  0
   81.7658  -22.3485  -52.6933 S   0  0  0  0  0  0  0  0  0  0  0  0
   83.8752  -22.3433  -52.6811 S   0  0  0  0  0  0  0  0  0  0  0  0
   84.5658  -23.1207  -54.5164 S   0  0  0  0  0  0  0  0  0  0  0  0
   86.6752  -23.1155  -54.5042 S   0  0  0  0  0  0  0  0  0  0  0  0
   87.3658  -23.8929  -56.3395 S   0  0  0  0  0  0  0  0  0  0  0  0
   89.4752  -23.8877  -56.3273 S   0  0  0  0  0  0  0  0  0  0  0  0
   90.1658  -24.6651  -58.1627 S   0  0  0  0  0  0  0  0  0  0  0  0
   92.2752  -24.6599  -58.1504 S   0  0  0  0  0  0  0  0  0  0  0  0
   92.9658  -25.4373  -59.9858 S   0  0  0  0  0  0  0  0  0  0  0  0
   95.0751  -25.4321  -59.9735 S   0  0  0  0  0  0  0  0  0  0  0  0
   95.7657  -26.2095  -61.8088 S   0  0  0  0  0  0  0  0  0  0  0  0
   97.8750  -26.2042  -61.7964 S   0  0  0  0  0  0  0  0  0  0  0  0
   98.5651  -26.9815  -63.6315 S   0  0  0  0  0  0  0  0  0  0  0  0
  100.6739  -26.9762  -63.6191 S   0  0  0  0  0  0  0  0  0  0  0  0
  101.3629  -27.7535  -65.4540 S   0  0  0  0  0  0  0  0  0  0  0  0
  103.4705  -27.7480  -65.4411 S   0  0  0  0  0  0  0  0  0  0  0  0
  104.1557  -28.5234  -67.2733 S   0  0  0  0  0  0  0  0  0  0  0  0
  106.2566  -28.5174  -67.2548 S   0  0  0  0  0  0  0  0  0  0  0  0
  106.9363  -29.2898  -69.0813 S   0  0  0  0  0  0  0  0  0  0  0  0
  109.0203  -29.2277  -69.0527 S   0  0  0  0  0  0  0  0  0  0  0  0
  109.6912  -30.1117  -70.8040 S   0  0  0  0  0  0  0  0  0  0  0  0
  111.7612  -29.9828  -70.7856 S   0  0  0  0  0  0  0  0  0  0  0  0
  112.3865  -31.2893  -69.3159 S   0  0  0  0  0  0  0  0  0  0  0  0
    6.4177   -8.9888   -1.4006 H   0  0  0  0  0  0  0  0  0  0  0  0
    8.7662   -6.2728   -4.2042 H   0  0  0  0  0  0  0  0  0  0  0  0
   10.1527   -5.1475   -4.0965 H   0  0  0  0  0  0  0  0  0  0  0  0
  113.7323  -31.1546  -69.3927 H   0  0  0  0  0  0  0  0  0  0  0  0
  1  2  1  0  0  0  0
  1 82  1  0  0  0  0
  2  3  1  0  0  0  0
  3  4  1  0  0  0  0
  4  5  1  0  0  0  0
  5  6  1  0  0  0  0
  5 83  1  0  0  0  0
  5 84  1  0  0  0  0
  6  7  1  0  0  0  0
  7  8  1  0  0  0  0
  8  9  1  0  0  0  0
  9 10  1  0  0  0  0
 10 11  1  0  0  0  0
 11 12  1  0  0  0  0
 12 13  1  0  0  0  0
 13 14  1  0  0  0  0
 14 15  1  0  0  0  0
 15 16  1  0  0  0  0
 16 17  1  0  0  0  0
 17 18  1  0  0  0  0
 18 19  1  0  0  0  0
 19 20  1  0  0  0  0
 20 21  1  0  0  0  0
 21 22  1  0  0  0  0
 22 23  1  0  0  0  0
 23 24  1  0  0  0  0
 24 25  1  0  0  0  0
 25 26  1  0  0  0  0
 26 27  1  0  0  0  0
 27 28  1  0  0  0  0
 28 29  1  0  0  0  0
 29 30  1  0  0  0  0
 30 31  1  0  0  0  0
 31 32  1  0  0  0  0
 32 33  1  0  0  0  0
 33 34  1  0  0  0  0
 34 35  1  0  0  0  0
 35 36  1  0  0  0  0
 36 37  1  0  0  0  0
 37 38  1  0  0  0  0
 38 39  1  0  0  0  0
 39 40  1  0  0  0  0
 40 41  1  0  0  0  0
 41 42  1  0  0  0  0
 42 43  1  0  0  0  0
 43 44  1  0  0  0  0
 44 45  1  0  0  0  0
 45 46  1  0  0  0  0
 46 47  1  0  0  0  0
 47 48  1  0  0  0  0
 48 49  1  0  0  0  0
 49 50  1  0  0  0  0
 50 51  1  0  0  0  0
 51 52  1  0  0  0  0
 52 53  1  0  0  0  0
 53 54  1  0  0  0  0
 54 55  1  0  0  0  0
 55 56  1  0  0  0  0
 56 57  1  0  0  0  0
 57 58  1  0  0  0  0
 58 59  1  0  0  0  0
 59 60  1  0  0  0  0
 60 61  1  0  0  0  0
 61 62  1  0  0  0  0
 62 63  1  0  0  0  0
 63 64  1  0  0  0  0
 64 65  1  0  0  0  0
 65 66  1  0  0  0  0
 66 67  1  0  0  0  0
 67 68  1  0  0  0  0
 68 69  1  0  0  0  0
 69 70  1  0  0  0  0
 70 71  1  0  0  0  0
 71 72  1  0  0  0  0
 72 73  1  0  0  0  0
 73 74  1  0  0  0  0
 74 75  1  0  0  0  0
 75 76  1  0  0  0  0
 76 77  1  0  0  0  0
 77 78  1  0  0  0  0
 78 79  1  0  0  0  0
 79 80  1  0  0  0  0
 80 81  1  0  0  0  0
 81 85  1  0  0  0  0
M  END
$$$$
