
 OpenBabel04232217013D

241240  0  0  0  0  0  0  0  0999 V2000
    2.8171    0.7237   -1.0177 O   0  0  0  0  0  0  0  0  0  0  0  0
    2.3565   -0.1884   -0.0235 C   0  0  0  0  0  0  0  0  0  0  0  0
    2.8728    0.2404    1.3357 C   0  0  0  0  0  0  0  0  0  0  0  0
    4.3919    0.2532    1.3328 C   0  0  0  0  0  0  0  0  0  0  0  0
    4.8687    0.6504    2.6154 O   0  0  0  0  0  0  0  0  0  0  0  0
    6.2924    0.6636    2.6100 C   0  0  0  0  0  0  0  0  0  0  0  0
    6.7896    1.0940    3.9738 C   0  0  0  0  0  0  0  0  0  0  0  0
    8.3089    1.1075    3.9832 C   0  0  0  0  0  0  0  0  0  0  0  0
    8.8229    1.5370    5.3446 C   0  0  0  0  0  0  0  0  0  0  0  0
   10.3410    1.5460    5.3461 C   0  0  0  0  0  0  0  0  0  0  0  0
   10.8527    1.9739    6.7090 C   0  0  0  0  0  0  0  0  0  0  0  0
   12.3694    1.9850    6.7108 C   0  0  0  0  0  0  0  0  0  0  0  0
   12.8799    2.4109    8.0742 C   0  0  0  0  0  0  0  0  0  0  0  0
   14.3963    2.4201    8.0766 C   0  0  0  0  0  0  0  0  0  0  0  0
   14.9064    2.8459    9.4397 C   0  0  0  0  0  0  0  0  0  0  0  0
   16.4229    2.8532    9.4427 C   0  0  0  0  0  0  0  0  0  0  0  0
   16.9331    3.2771   10.8064 C   0  0  0  0  0  0  0  0  0  0  0  0
   18.4496    3.2863   10.8088 C   0  0  0  0  0  0  0  0  0  0  0  0
   18.9598    3.7122   12.1720 C   0  0  0  0  0  0  0  0  0  0  0  0
   20.4762    3.7233   12.1738 C   0  0  0  0  0  0  0  0  0  0  0  0
   20.9864    4.1472   13.5375 C   0  0  0  0  0  0  0  0  0  0  0  0
   22.5028    4.1564   13.5398 C   0  0  0  0  0  0  0  0  0  0  0  0
   23.0130    4.5784   14.9042 C   0  0  0  0  0  0  0  0  0  0  0  0
   24.5295    4.5857   14.9071 C   0  0  0  0  0  0  0  0  0  0  0  0
   25.0397    5.0076   16.2715 C   0  0  0  0  0  0  0  0  0  0  0  0
   26.5562    5.0130   16.2750 C   0  0  0  0  0  0  0  0  0  0  0  0
   27.0663    5.4349   17.6393 C   0  0  0  0  0  0  0  0  0  0  0  0
   28.5828    5.4403   17.6429 C   0  0  0  0  0  0  0  0  0  0  0  0
   29.0930    5.8622   19.0072 C   0  0  0  0  0  0  0  0  0  0  0  0
   30.6095    5.8676   19.0108 C   0  0  0  0  0  0  0  0  0  0  0  0
   31.1197    6.2896   20.3751 C   0  0  0  0  0  0  0  0  0  0  0  0
   32.6361    6.2949   20.3787 C   0  0  0  0  0  0  0  0  0  0  0  0
   33.1463    6.7169   21.7430 C   0  0  0  0  0  0  0  0  0  0  0  0
   34.6628    6.7203   21.7472 C   0  0  0  0  0  0  0  0  0  0  0  0
   35.1730    7.1422   23.1115 C   0  0  0  0  0  0  0  0  0  0  0  0
   36.6895    7.1437   23.1163 C   0  0  0  0  0  0  0  0  0  0  0  0
   37.1996    7.5638   24.4812 C   0  0  0  0  0  0  0  0  0  0  0  0
   38.7161    7.5671   24.4853 C   0  0  0  0  0  0  0  0  0  0  0  0
   39.2263    7.9891   25.8497 C   0  0  0  0  0  0  0  0  0  0  0  0
   40.7428    7.9906   25.8544 C   0  0  0  0  0  0  0  0  0  0  0  0
   41.2530    8.4145   27.2181 C   0  0  0  0  0  0  0  0  0  0  0  0
   42.7694    8.4160   27.2229 C   0  0  0  0  0  0  0  0  0  0  0  0
   43.2796    8.8399   28.5866 C   0  0  0  0  0  0  0  0  0  0  0  0
   44.7961    8.8413   28.5914 C   0  0  0  0  0  0  0  0  0  0  0  0
   45.3063    9.2652   29.9551 C   0  0  0  0  0  0  0  0  0  0  0  0
   46.8228    9.2667   29.9599 C   0  0  0  0  0  0  0  0  0  0  0  0
   47.3330    9.6906   31.3236 C   0  0  0  0  0  0  0  0  0  0  0  0
   48.8494    9.6921   31.3284 C   0  0  0  0  0  0  0  0  0  0  0  0
   49.3596   10.1160   32.6921 C   0  0  0  0  0  0  0  0  0  0  0  0
   50.8761   10.1155   32.6974 C   0  0  0  0  0  0  0  0  0  0  0  0
   51.3863   10.5394   34.0612 C   0  0  0  0  0  0  0  0  0  0  0  0
   52.9027   10.5371   34.0671 C   0  0  0  0  0  0  0  0  0  0  0  0
   53.4129   10.9628   35.4303 C   0  0  0  0  0  0  0  0  0  0  0  0
   54.9294   10.9586   35.4368 C   0  0  0  0  0  0  0  0  0  0  0  0
   55.4396   11.3824   36.8005 C   0  0  0  0  0  0  0  0  0  0  0  0
   56.9560   11.3801   36.8065 C   0  0  0  0  0  0  0  0  0  0  0  0
   57.4662   11.8059   38.1696 C   0  0  0  0  0  0  0  0  0  0  0  0
   58.9827   11.8054   38.1750 C   0  0  0  0  0  0  0  0  0  0  0  0
   59.4929   12.2313   39.5381 C   0  0  0  0  0  0  0  0  0  0  0  0
   61.0094   12.2289   39.5441 C   0  0  0  0  0  0  0  0  0  0  0  0
   61.5196   12.6547   40.9072 C   0  0  0  0  0  0  0  0  0  0  0  0
   63.0360   12.6523   40.9132 C   0  0  0  0  0  0  0  0  0  0  0  0
   63.5462   13.0781   42.2763 C   0  0  0  0  0  0  0  0  0  0  0  0
   65.0627   13.0758   42.2823 C   0  0  0  0  0  0  0  0  0  0  0  0
   65.5729   13.5016   43.6454 C   0  0  0  0  0  0  0  0  0  0  0  0
   67.0893   13.4992   43.6513 C   0  0  0  0  0  0  0  0  0  0  0  0
   67.5995   13.9250   45.0145 C   0  0  0  0  0  0  0  0  0  0  0  0
   69.1160   13.9227   45.0204 C   0  0  0  0  0  0  0  0  0  0  0  0
   69.6262   14.3485   46.3836 C   0  0  0  0  0  0  0  0  0  0  0  0
   71.1427   14.3480   46.3889 C   0  0  0  0  0  0  0  0  0  0  0  0
   71.6529   14.7738   47.7520 C   0  0  0  0  0  0  0  0  0  0  0  0
   73.1693   14.7734   47.7574 C   0  0  0  0  0  0  0  0  0  0  0  0
   73.6795   15.1992   49.1205 C   0  0  0  0  0  0  0  0  0  0  0  0
   75.1962   15.1988   49.1261 C   0  0  0  0  0  0  0  0  0  0  0  0
   75.7061   15.6247   50.4892 C   0  0  0  0  0  0  0  0  0  0  0  0
   77.2231   15.6223   50.4950 C   0  0  0  0  0  0  0  0  0  0  0  0
   77.7349   16.0485   51.8594 C   0  0  0  0  0  0  0  0  0  0  0  0
   79.2531   16.0463   51.8660 C   0  0  0  0  0  0  0  0  0  0  0  0
   79.7661   16.4706   53.2310 C   0  0  0  0  0  0  0  0  0  0  0  0
   81.2880   16.4697   53.2487 C   0  0  0  0  0  0  0  0  0  0  0  0
   81.7976   16.8933   54.6114 C   0  0  0  0  0  0  0  0  0  0  0  0
    2.4775    0.4136   -1.8679 H   0  0  0  0  0  0  0  0  0  0  0  0
    2.7183   -1.1919   -0.2759 H   0  0  0  0  0  0  0  0  0  0  0  0
    1.2599   -0.1934   -0.0363 H   0  0  0  0  0  0  0  0  0  0  0  0
    2.5034   -0.4327    2.1180 H   0  0  0  0  0  0  0  0  0  0  0  0
    2.5037    1.2429    1.5878 H   0  0  0  0  0  0  0  0  0  0  0  0
    4.7692    0.9513    0.5771 H   0  0  0  0  0  0  0  0  0  0  0  0
    4.7703   -0.7506    1.1062 H   0  0  0  0  0  0  0  0  0  0  0  0
    6.6526    1.3615    1.8446 H   0  0  0  0  0  0  0  0  0  0  0  0
    6.6639   -0.3415    2.3784 H   0  0  0  0  0  0  0  0  0  0  0  0
    6.4069    0.4129    4.7436 H   0  0  0  0  0  0  0  0  0  0  0  0
    6.3952    2.0874    4.2198 H   0  0  0  0  0  0  0  0  0  0  0  0
    8.6820    1.7936    3.2122 H   0  0  0  0  0  0  0  0  0  0  0  0
    8.6936    0.1090    3.7392 H   0  0  0  0  0  0  0  0  0  0  0  0
    8.4542    0.8506    6.1157 H   0  0  0  0  0  0  0  0  0  0  0  0
    8.4447    2.5369    5.5873 H   0  0  0  0  0  0  0  0  0  0  0  0
   10.7127    2.2330    4.5760 H   0  0  0  0  0  0  0  0  0  0  0  0
   10.7223    0.5469    5.1019 H   0  0  0  0  0  0  0  0  0  0  0  0
   10.4834    1.2860    7.4793 H   0  0  0  0  0  0  0  0  0  0  0  0
   10.4718    2.9727    6.9543 H   0  0  0  0  0  0  0  0  0  0  0  0
   12.7393    2.6741    5.9415 H   0  0  0  0  0  0  0  0  0  0  0  0
   12.7510    0.9863    6.4645 H   0  0  0  0  0  0  0  0  0  0  0  0
   12.5090    1.7226    8.8438 H   0  0  0  0  0  0  0  0  0  0  0  0
   12.4994    3.4102    8.3201 H   0  0  0  0  0  0  0  0  0  0  0  0
   14.7671    3.1084    7.3069 H   0  0  0  0  0  0  0  0  0  0  0  0
   14.7764    1.4208    7.8306 H   0  0  0  0  0  0  0  0  0  0  0  0
   14.5345    2.1584   10.2096 H   0  0  0  0  0  0  0  0  0  0  0  0
   14.5274    3.8458    9.6851 H   0  0  0  0  0  0  0  0  0  0  0  0
   16.7949    3.5418    8.6738 H   0  0  0  0  0  0  0  0  0  0  0  0
   16.8021    1.8537    9.1960 H   0  0  0  0  0  0  0  0  0  0  0  0
   16.5623    2.5878   11.5752 H   0  0  0  0  0  0  0  0  0  0  0  0
   16.5529    4.2761   11.0538 H   0  0  0  0  0  0  0  0  0  0  0  0
   18.8204    3.9747   10.0392 H   0  0  0  0  0  0  0  0  0  0  0  0
   18.8299    2.2871   10.5628 H   0  0  0  0  0  0  0  0  0  0  0  0
   18.5900    3.0230   12.9414 H   0  0  0  0  0  0  0  0  0  0  0  0
   18.5784    4.7109   12.4186 H   0  0  0  0  0  0  0  0  0  0  0  0
   20.8459    4.4135   11.4052 H   0  0  0  0  0  0  0  0  0  0  0  0
   20.8576    2.7249   11.9258 H   0  0  0  0  0  0  0  0  0  0  0  0
   20.6156    3.4578   14.3061 H   0  0  0  0  0  0  0  0  0  0  0  0
   20.6061    5.1462   13.7849 H   0  0  0  0  0  0  0  0  0  0  0  0
   22.8737    4.8469   12.7721 H   0  0  0  0  0  0  0  0  0  0  0  0
   22.8831    3.1578   13.2911 H   0  0  0  0  0  0  0  0  0  0  0  0
   22.6411    3.8888   15.6721 H   0  0  0  0  0  0  0  0  0  0  0  0
   22.6339    5.5776   15.1524 H   0  0  0  0  0  0  0  0  0  0  0  0
   24.9016    5.2753   14.1392 H   0  0  0  0  0  0  0  0  0  0  0  0
   24.9085    3.5865   14.6589 H   0  0  0  0  0  0  0  0  0  0  0  0
   24.6665    4.3188   17.0396 H   0  0  0  0  0  0  0  0  0  0  0  0
   24.6617    6.0074   16.5190 H   0  0  0  0  0  0  0  0  0  0  0  0
   26.9293    5.7018   15.5069 H   0  0  0  0  0  0  0  0  0  0  0  0
   26.9341    4.0132   16.0275 H   0  0  0  0  0  0  0  0  0  0  0  0
   26.6932    4.7461   18.4074 H   0  0  0  0  0  0  0  0  0  0  0  0
   26.6884    6.4347   17.8869 H   0  0  0  0  0  0  0  0  0  0  0  0
   28.9560    6.1291   16.8748 H   0  0  0  0  0  0  0  0  0  0  0  0
   28.9607    4.4405   17.3953 H   0  0  0  0  0  0  0  0  0  0  0  0
   28.7198    5.1734   19.7753 H   0  0  0  0  0  0  0  0  0  0  0  0
   28.7151    6.8620   19.2548 H   0  0  0  0  0  0  0  0  0  0  0  0
   30.9827    6.5564   18.2427 H   0  0  0  0  0  0  0  0  0  0  0  0
   30.9874    4.8678   18.7632 H   0  0  0  0  0  0  0  0  0  0  0  0
   30.7465    5.6008   21.1432 H   0  0  0  0  0  0  0  0  0  0  0  0
   30.7418    7.2894   20.6227 H   0  0  0  0  0  0  0  0  0  0  0  0
   33.0094    6.9837   19.6106 H   0  0  0  0  0  0  0  0  0  0  0  0
   33.0140    5.2951   20.1311 H   0  0  0  0  0  0  0  0  0  0  0  0
   32.7720    6.0289   22.5113 H   0  0  0  0  0  0  0  0  0  0  0  0
   32.7696    7.7173   21.9900 H   0  0  0  0  0  0  0  0  0  0  0  0
   35.0372    7.4083   20.9789 H   0  0  0  0  0  0  0  0  0  0  0  0
   35.0395    5.7199   21.5002 H   0  0  0  0  0  0  0  0  0  0  0  0
   34.7975    6.4550   23.8799 H   0  0  0  0  0  0  0  0  0  0  0  0
   34.7974    8.1432   23.3579 H   0  0  0  0  0  0  0  0  0  0  0  0
   37.0649    7.8319   22.3487 H   0  0  0  0  0  0  0  0  0  0  0  0
   37.0651    6.1431   22.8686 H   0  0  0  0  0  0  0  0  0  0  0  0
   36.8253    6.8747   25.2485 H   0  0  0  0  0  0  0  0  0  0  0  0
   36.8229    8.5638   24.7295 H   0  0  0  0  0  0  0  0  0  0  0  0
   39.0906    8.2551   23.7171 H   0  0  0  0  0  0  0  0  0  0  0  0
   39.0928    6.5667   24.2383 H   0  0  0  0  0  0  0  0  0  0  0  0
   38.8508    7.3020   26.6182 H   0  0  0  0  0  0  0  0  0  0  0  0
   38.8507    8.9901   26.0959 H   0  0  0  0  0  0  0  0  0  0  0  0
   41.1183    8.6767   25.0850 H   0  0  0  0  0  0  0  0  0  0  0  0
   41.1183    6.9893   25.6095 H   0  0  0  0  0  0  0  0  0  0  0  0
   40.8774    7.7284   27.9876 H   0  0  0  0  0  0  0  0  0  0  0  0
   40.8774    9.4158   27.4631 H   0  0  0  0  0  0  0  0  0  0  0  0
   43.1450    9.1020   26.4535 H   0  0  0  0  0  0  0  0  0  0  0  0
   43.1450    7.4146   26.9780 H   0  0  0  0  0  0  0  0  0  0  0  0
   42.9041    8.1538   29.3560 H   0  0  0  0  0  0  0  0  0  0  0  0
   42.9041    9.8412   28.8315 H   0  0  0  0  0  0  0  0  0  0  0  0
   45.1716    9.5274   27.8220 H   0  0  0  0  0  0  0  0  0  0  0  0
   45.1716    7.8400   28.3465 H   0  0  0  0  0  0  0  0  0  0  0  0
   44.9307    8.5792   30.7245 H   0  0  0  0  0  0  0  0  0  0  0  0
   44.9307   10.2666   30.2000 H   0  0  0  0  0  0  0  0  0  0  0  0
   47.1983    9.9528   29.1905 H   0  0  0  0  0  0  0  0  0  0  0  0
   47.1983    8.2654   29.7150 H   0  0  0  0  0  0  0  0  0  0  0  0
   46.9574    9.0046   32.0930 H   0  0  0  0  0  0  0  0  0  0  0  0
   46.9574   10.6920   31.5685 H   0  0  0  0  0  0  0  0  0  0  0  0
   49.2250   10.3781   30.5590 H   0  0  0  0  0  0  0  0  0  0  0  0
   49.2249    8.6907   31.0834 H   0  0  0  0  0  0  0  0  0  0  0  0
   48.9829    9.4308   33.4617 H   0  0  0  0  0  0  0  0  0  0  0  0
   48.9852   11.1179   32.9364 H   0  0  0  0  0  0  0  0  0  0  0  0
   51.2528   10.8007   31.9278 H   0  0  0  0  0  0  0  0  0  0  0  0
   51.2504    9.1136   32.4532 H   0  0  0  0  0  0  0  0  0  0  0  0
   51.0084    9.8551   34.8310 H   0  0  0  0  0  0  0  0  0  0  0  0
   51.0130   11.5420   34.3048 H   0  0  0  0  0  0  0  0  0  0  0  0
   53.2807   11.2204   33.2964 H   0  0  0  0  0  0  0  0  0  0  0  0
   53.2758    9.5342   33.8248 H   0  0  0  0  0  0  0  0  0  0  0  0
   53.0339   10.2804   36.2012 H   0  0  0  0  0  0  0  0  0  0  0  0
   53.0409   11.9663   35.6719 H   0  0  0  0  0  0  0  0  0  0  0  0
   55.3084   11.6421   34.6668 H   0  0  0  0  0  0  0  0  0  0  0  0
   55.3015    9.9555   35.1938 H   0  0  0  0  0  0  0  0  0  0  0  0
   55.0617   10.6981   37.5703 H   0  0  0  0  0  0  0  0  0  0  0  0
   55.0664   12.3850   37.0442 H   0  0  0  0  0  0  0  0  0  0  0  0
   57.3339   12.0634   36.0358 H   0  0  0  0  0  0  0  0  0  0  0  0
   57.3292   10.3772   36.5642 H   0  0  0  0  0  0  0  0  0  0  0  0
   57.0895   11.1218   38.9402 H   0  0  0  0  0  0  0  0  0  0  0  0
   57.0919   12.8082   38.4125 H   0  0  0  0  0  0  0  0  0  0  0  0
   59.3595   12.4895   37.4045 H   0  0  0  0  0  0  0  0  0  0  0  0
   59.3570   10.8031   37.9321 H   0  0  0  0  0  0  0  0  0  0  0  0
   59.1151   11.5480   40.3089 H   0  0  0  0  0  0  0  0  0  0  0  0
   59.1197   13.2341   39.7804 H   0  0  0  0  0  0  0  0  0  0  0  0
   61.3873   12.9122   38.7733 H   0  0  0  0  0  0  0  0  0  0  0  0
   61.3826   11.2260   39.3018 H   0  0  0  0  0  0  0  0  0  0  0  0
   61.1417   11.9714   41.6779 H   0  0  0  0  0  0  0  0  0  0  0  0
   61.1464   13.6576   41.1495 H   0  0  0  0  0  0  0  0  0  0  0  0
   63.4139   13.3356   40.1424 H   0  0  0  0  0  0  0  0  0  0  0  0
   63.4092   11.6495   40.6709 H   0  0  0  0  0  0  0  0  0  0  0  0
   63.1683   12.3949   43.0470 H   0  0  0  0  0  0  0  0  0  0  0  0
   63.1730   14.0810   42.5185 H   0  0  0  0  0  0  0  0  0  0  0  0
   65.4406   13.7590   41.5115 H   0  0  0  0  0  0  0  0  0  0  0  0
   65.4359   12.0729   42.0400 H   0  0  0  0  0  0  0  0  0  0  0  0
   65.1950   12.8183   44.4161 H   0  0  0  0  0  0  0  0  0  0  0  0
   65.1997   14.5045   43.8876 H   0  0  0  0  0  0  0  0  0  0  0  0
   67.4672   14.1825   42.8806 H   0  0  0  0  0  0  0  0  0  0  0  0
   67.4625   12.4963   43.4091 H   0  0  0  0  0  0  0  0  0  0  0  0
   67.2216   13.2417   45.7852 H   0  0  0  0  0  0  0  0  0  0  0  0
   67.2263   14.9279   45.2567 H   0  0  0  0  0  0  0  0  0  0  0  0
   69.4939   14.6059   44.2497 H   0  0  0  0  0  0  0  0  0  0  0  0
   69.4892   12.9198   44.7782 H   0  0  0  0  0  0  0  0  0  0  0  0
   69.2494   13.6644   47.1541 H   0  0  0  0  0  0  0  0  0  0  0  0
   69.2519   15.3508   46.6264 H   0  0  0  0  0  0  0  0  0  0  0  0
   71.5194   15.0321   45.6184 H   0  0  0  0  0  0  0  0  0  0  0  0
   71.5170   13.3457   46.1460 H   0  0  0  0  0  0  0  0  0  0  0  0
   71.2761   14.0897   48.5226 H   0  0  0  0  0  0  0  0  0  0  0  0
   71.2785   15.7761   47.9949 H   0  0  0  0  0  0  0  0  0  0  0  0
   73.5460   15.4575   46.9868 H   0  0  0  0  0  0  0  0  0  0  0  0
   73.5437   13.7711   47.5145 H   0  0  0  0  0  0  0  0  0  0  0  0
   73.3028   14.5151   49.8911 H   0  0  0  0  0  0  0  0  0  0  0  0
   73.3051   16.2015   49.3634 H   0  0  0  0  0  0  0  0  0  0  0  0
   75.5727   15.8829   48.3553 H   0  0  0  0  0  0  0  0  0  0  0  0
   75.5703   14.1965   48.8830 H   0  0  0  0  0  0  0  0  0  0  0  0
   75.3283   14.9413   51.2598 H   0  0  0  0  0  0  0  0  0  0  0  0
   75.3329   16.6275   50.7313 H   0  0  0  0  0  0  0  0  0  0  0  0
   77.6006   16.3052   49.7246 H   0  0  0  0  0  0  0  0  0  0  0  0
   77.5959   14.6199   50.2529 H   0  0  0  0  0  0  0  0  0  0  0  0
   77.3556   15.3651   52.6289 H   0  0  0  0  0  0  0  0  0  0  0  0
   77.3604   17.0507   52.1007 H   0  0  0  0  0  0  0  0  0  0  0  0
   79.6289   16.7302   51.0954 H   0  0  0  0  0  0  0  0  0  0  0  0
   79.6241   15.0436   51.6215 H   0  0  0  0  0  0  0  0  0  0  0  0
   79.3836   15.7868   53.9989 H   0  0  0  0  0  0  0  0  0  0  0  0
   79.3905   17.4727   53.4723 H   0  0  0  0  0  0  0  0  0  0  0  0
   81.6695   17.1535   52.4817 H   0  0  0  0  0  0  0  0  0  0  0  0
   81.6624   15.4681   53.0083 H   0  0  0  0  0  0  0  0  0  0  0  0
   81.4494   17.9012   54.8586 H   0  0  0  0  0  0  0  0  0  0  0  0
   82.8905   16.8923   54.6228 H   0  0  0  0  0  0  0  0  0  0  0  0
   81.4423   16.2080   55.3876 H   0  0  0  0  0  0  0  0  0  0  0  0
  1  2  1  0  0  0  0
  1 82  1  0  0  0  0
  2  3  1  0  0  0  0
  2 83  1  0  0  0  0
  2 84  1  0  0  0  0
  3  4  1  0  0  0  0
  3 85  1  0  0  0  0
  3 86  1  0  0  0  0
  4  5  1  0  0  0  0
  4 87  1  0  0  0  0
  4 88  1  0  0  0  0
  5  6  1  0  0  0  0
  6  7  1  0  0  0  0
  6 89  1  0  0  0  0
  6 90  1  0  0  0  0
  7  8  1  0  0  0  0
  7 91  1  0  0  0  0
  7 92  1  0  0  0  0
  8  9  1  0  0  0  0
  8 93  1  0  0  0  0
  8 94  1  0  0  0  0
  9 10  1  0  0  0  0
  9 95  1  0  0  0  0
  9 96  1  0  0  0  0
 10 11  1  0  0  0  0
 10 97  1  0  0  0  0
 10 98  1  0  0  0  0
 11 12  1  0  0  0  0
 11 99  1  0  0  0  0
 11100  1  0  0  0  0
 12 13  1  0  0  0  0
 12101  1  0  0  0  0
 12102  1  0  0  0  0
 13 14  1  0  0  0  0
 13103  1  0  0  0  0
 13104  1  0  0  0  0
 14 15  1  0  0  0  0
 14105  1  0  0  0  0
 14106  1  0  0  0  0
 15 16  1  0  0  0  0
 15107  1  0  0  0  0
 15108  1  0  0  0  0
 16 17  1  0  0  0  0
 16109  1  0  0  0  0
 16110  1  0  0  0  0
 17 18  1  0  0  0  0
 17111  1  0  0  0  0
 17112  1  0  0  0  0
 18 19  1  0  0  0  0
 18113  1  0  0  0  0
 18114  1  0  0  0  0
 19 20  1  0  0  0  0
 19115  1  0  0  0  0
 19116  1  0  0  0  0
 20 21  1  0  0  0  0
 20117  1  0  0  0  0
 20118  1  0  0  0  0
 21 22  1  0  0  0  0
 21119  1  0  0  0  0
 21120  1  0  0  0  0
 22 23  1  0  0  0  0
 22121  1  0  0  0  0
 22122  1  0  0  0  0
 23 24  1  0  0  0  0
 23123  1  0  0  0  0
 23124  1  0  0  0  0
 24 25  1  0  0  0  0
 24125  1  0  0  0  0
 24126  1  0  0  0  0
 25 26  1  0  0  0  0
 25127  1  0  0  0  0
 25128  1  0  0  0  0
 26 27  1  0  0  0  0
 26129  1  0  0  0  0
 26130  1  0  0  0  0
 27 28  1  0  0  0  0
 27131  1  0  0  0  0
 27132  1  0  0  0  0
 28 29  1  0  0  0  0
 28133  1  0  0  0  0
 28134  1  0  0  0  0
 29 30  1  0  0  0  0
 29135  1  0  0  0  0
 29136  1  0  0  0  0
 30 31  1  0  0  0  0
 30137  1  0  0  0  0
 30138  1  0  0  0  0
 31 32  1  0  0  0  0
 31139  1  0  0  0  0
 31140  1  0  0  0  0
 32 33  1  0  0  0  0
 32141  1  0  0  0  0
 32142  1  0  0  0  0
 33 34  1  0  0  0  0
 33143  1  0  0  0  0
 33144  1  0  0  0  0
 34 35  1  0  0  0  0
 34145  1  0  0  0  0
 34146  1  0  0  0  0
 35 36  1  0  0  0  0
 35147  1  0  0  0  0
 35148  1  0  0  0  0
 36 37  1  0  0  0  0
 36149  1  0  0  0  0
 36150  1  0  0  0  0
 37 38  1  0  0  0  0
 37151  1  0  0  0  0
 37152  1  0  0  0  0
 38 39  1  0  0  0  0
 38153  1  0  0  0  0
 38154  1  0  0  0  0
 39 40  1  0  0  0  0
 39155  1  0  0  0  0
 39156  1  0  0  0  0
 40 41  1  0  0  0  0
 40157  1  0  0  0  0
 40158  1  0  0  0  0
 41 42  1  0  0  0  0
 41159  1  0  0  0  0
 41160  1  0  0  0  0
 42 43  1  0  0  0  0
 42161  1  0  0  0  0
 42162  1  0  0  0  0
 43 44  1  0  0  0  0
 43163  1  0  0  0  0
 43164  1  0  0  0  0
 44 45  1  0  0  0  0
 44165  1  0  0  0  0
 44166  1  0  0  0  0
 45 46  1  0  0  0  0
 45167  1  0  0  0  0
 45168  1  0  0  0  0
 46 47  1  0  0  0  0
 46169  1  0  0  0  0
 46170  1  0  0  0  0
 47 48  1  0  0  0  0
 47171  1  0  0  0  0
 47172  1  0  0  0  0
 48 49  1  0  0  0  0
 48173  1  0  0  0  0
 48174  1  0  0  0  0
 49 50  1  0  0  0  0
 49175  1  0  0  0  0
 49176  1  0  0  0  0
 50 51  1  0  0  0  0
 50177  1  0  0  0  0
 50178  1  0  0  0  0
 51 52  1  0  0  0  0
 51179  1  0  0  0  0
 51180  1  0  0  0  0
 52 53  1  0  0  0  0
 52181  1  0  0  0  0
 52182  1  0  0  0  0
 53 54  1  0  0  0  0
 53183  1  0  0  0  0
 53184  1  0  0  0  0
 54 55  1  0  0  0  0
 54185  1  0  0  0  0
 54186  1  0  0  0  0
 55 56  1  0  0  0  0
 55187  1  0  0  0  0
 55188  1  0  0  0  0
 56 57  1  0  0  0  0
 56189  1  0  0  0  0
 56190  1  0  0  0  0
 57 58  1  0  0  0  0
 57191  1  0  0  0  0
 57192  1  0  0  0  0
 58 59  1  0  0  0  0
 58193  1  0  0  0  0
 58194  1  0  0  0  0
 59 60  1  0  0  0  0
 59195  1  0  0  0  0
 59196  1  0  0  0  0
 60 61  1  0  0  0  0
 60197  1  0  0  0  0
 60198  1  0  0  0  0
 61 62  1  0  0  0  0
 61199  1  0  0  0  0
 61200  1  0  0  0  0
 62 63  1  0  0  0  0
 62201  1  0  0  0  0
 62202  1  0  0  0  0
 63 64  1  0  0  0  0
 63203  1  0  0  0  0
 63204  1  0  0  0  0
 64 65  1  0  0  0  0
 64205  1  0  0  0  0
 64206  1  0  0  0  0
 65 66  1  0  0  0  0
 65207  1  0  0  0  0
 65208  1  0  0  0  0
 66 67  1  0  0  0  0
 66209  1  0  0  0  0
 66210  1  0  0  0  0
 67 68  1  0  0  0  0
 67211  1  0  0  0  0
 67212  1  0  0  0  0
 68 69  1  0  0  0  0
 68213  1  0  0  0  0
 68214  1  0  0  0  0
 69 70  1  0  0  0  0
 69215  1  0  0  0  0
 69216  1  0  0  0  0
 70 71  1  0  0  0  0
 70217  1  0  0  0  0
 70218  1  0  0  0  0
 71 72  1  0  0  0  0
 71219  1  0  0  0  0
 71220  1  0  0  0  0
 72 73  1  0  0  0  0
 72221  1  0  0  0  0
 72222  1  0  0  0  0
 73 74  1  0  0  0  0
 73223  1  0  0  0  0
 73224  1  0  0  0  0
 74 75  1  0  0  0  0
 74225  1  0  0  0  0
 74226  1  0  0  0  0
 75 76  1  0  0  0  0
 75227  1  0  0  0  0
 75228  1  0  0  0  0
 76 77  1  0  0  0  0
 76229  1  0  0  0  0
 76230  1  0  0  0  0
 77 78  1  0  0  0  0
 77231  1  0  0  0  0
 77232  1  0  0  0  0
 78 79  1  0  0  0  0
 78233  1  0  0  0  0
 78234  1  0  0  0  0
 79 80  1  0  0  0  0
 79235  1  0  0  0  0
 79236  1  0  0  0  0
 80 81  1  0  0  0  0
 80237  1  0  0  0  0
 80238  1  0  0  0  0
 81239  1  0  0  0  0
 81240  1  0  0  0  0
 81241  1  0  0  0  0
M  END
$$$$
