
 OpenBabel04232216453D

 53 53  0  0  0  0  0  0  0  0999 V2000
    6.4499    1.4781    2.3183 C   0  0  0  0  0  0  0  0  0  0  0  0
    7.4030    2.3886    1.3809 C   0  0  0  0  0  0  0  0  0  0  0  0
    6.2517    2.4320    0.3886 C   0  0  0  0  0  0  0  0  0  0  0  0
    5.7588    1.6065   -0.5733 C   0  0  0  0  0  0  0  0  0  0  0  0
    6.1497    0.1512   -0.8088 C   0  0  0  0  0  0  0  0  0  0  0  0
    5.3925    2.3752   -1.8869 C   0  0  0  0  0  0  0  0  0  0  0  0
    6.7230    3.1323   -1.9120 C   0  0  0  0  0  0  0  0  0  0  0  0
    7.4429    3.9582   -2.9107 C   0  0  0  0  0  0  0  0  0  0  0  0
    8.7990    3.2803   -2.8927 C   0  0  0  0  0  0  0  0  0  0  0  0
    9.8459    4.2694   -3.2347 C   0  0  0  0  0  0  0  0  0  0  0  0
   11.1058    3.4792   -3.3942 C   0  0  0  0  0  0  0  0  0  0  0  0
   12.2796    4.4335   -3.1488 C   0  0  0  0  0  0  0  0  0  0  0  0
   12.8005    5.2537   -3.9380 O   0  0  0  0  0  0  0  0  0  0  0  0
   12.7026    4.2748   -1.7010 C   0  0  0  0  0  0  0  0  0  0  0  0
   11.7638    4.5723   -0.8046 C   0  0  0  0  0  0  0  0  0  0  0  0
   11.4561    3.7020    0.3994 C   0  0  0  0  0  0  0  0  0  0  0  0
   13.0974    3.8102    1.0157 C   0  0  0  0  0  0  0  0  0  0  0  0
   13.7705    5.3005    1.2217 C   0  0  0  0  0  0  0  0  0  0  0  0
   13.1195    6.1185    1.9009 O   0  0  0  0  0  0  0  0  0  0  0  0
   15.2336    5.8403    0.7679 C   0  0  0  0  0  0  0  0  0  0  0  0
   16.3441    5.3615   -0.1780 C   0  0  0  0  0  0  0  0  0  0  0  0
   10.0786    3.5612    0.8611 C   0  0  0  0  0  0  0  0  0  0  0  0
    8.8203    2.3353    1.1081 C   0  0  0  0  0  0  0  0  0  0  0  0
    5.4610    1.9897    2.4666 H   0  0  0  0  0  0  0  0  0  0  0  0
    6.7861    1.2843    3.3296 H   0  0  0  0  0  0  0  0  0  0  0  0
    6.1400    0.5227    1.8542 H   0  0  0  0  0  0  0  0  0  0  0  0
    5.6925    3.3923    0.4770 H   0  0  0  0  0  0  0  0  0  0  0  0
    5.2689   -0.5122   -0.6992 H   0  0  0  0  0  0  0  0  0  0  0  0
    6.9057   -0.1827   -0.0992 H   0  0  0  0  0  0  0  0  0  0  0  0
    6.5506   -0.0134   -1.8092 H   0  0  0  0  0  0  0  0  0  0  0  0
    4.5396    3.0600   -1.7687 H   0  0  0  0  0  0  0  0  0  0  0  0
    5.2717    1.7526   -2.7514 H   0  0  0  0  0  0  0  0  0  0  0  0
    7.4092    2.2831   -1.7170 H   0  0  0  0  0  0  0  0  0  0  0  0
    6.7562    3.8309   -1.0935 H   0  0  0  0  0  0  0  0  0  0  0  0
    7.5351    4.9540   -2.4726 H   0  0  0  0  0  0  0  0  0  0  0  0
    6.9851    4.0216   -3.8777 H   0  0  0  0  0  0  0  0  0  0  0  0
    8.7901    2.3900   -3.5296 H   0  0  0  0  0  0  0  0  0  0  0  0
    9.0870    2.9132   -1.8803 H   0  0  0  0  0  0  0  0  0  0  0  0
    9.8860    4.9877   -2.4055 H   0  0  0  0  0  0  0  0  0  0  0  0
    9.6195    4.8261   -4.1357 H   0  0  0  0  0  0  0  0  0  0  0  0
   11.1891    2.9681   -4.3462 H   0  0  0  0  0  0  0  0  0  0  0  0
   11.1565    2.6494   -2.6453 H   0  0  0  0  0  0  0  0  0  0  0  0
   13.3628    3.4040   -1.6756 H   0  0  0  0  0  0  0  0  0  0  0  0
   11.2283    5.5158   -0.8430 H   0  0  0  0  0  0  0  0  0  0  0  0
   13.7720    3.3313    0.2902 H   0  0  0  0  0  0  0  0  0  0  0  0
   13.2247    3.2275    1.9251 H   0  0  0  0  0  0  0  0  0  0  0  0
   15.7675    6.0282    1.7145 H   0  0  0  0  0  0  0  0  0  0  0  0
   15.0290    6.8594    0.3833 H   0  0  0  0  0  0  0  0  0  0  0  0
   16.7483    4.3777    0.0675 H   0  0  0  0  0  0  0  0  0  0  0  0
   17.2107    6.0545   -0.0939 H   0  0  0  0  0  0  0  0  0  0  0  0
   16.0761    5.4064   -1.2388 H   0  0  0  0  0  0  0  0  0  0  0  0
    9.4211    4.3475    0.4224 H   0  0  0  0  0  0  0  0  0  0  0  0
    9.1056    1.4908    0.4745 H   0  0  0  0  0  0  0  0  0  0  0  0
  1  2  1  0  0  0  0
  1 24  1  0  0  0  0
  1 25  1  0  0  0  0
  1 26  1  0  0  0  0
  2  3  1  0  0  0  0
  2 23  2  3  0  0  0
  3  4  2  3  0  0  0
  3 27  1  0  0  0  0
  4  5  1  0  0  0  0
  4  6  1  0  0  0  0
  5 28  1  0  0  0  0
  5 29  1  0  0  0  0
  5 30  1  0  0  0  0
  6  7  1  0  0  0  0
  6 31  1  0  0  0  0
  6 32  1  0  0  0  0
  7  8  1  0  0  0  0
  7 33  1  0  0  0  0
  7 34  1  0  0  0  0
  8  9  1  0  0  0  0
  8 35  1  0  0  0  0
  8 36  1  0  0  0  0
  9 10  1  0  0  0  0
  9 37  1  0  0  0  0
  9 38  1  0  0  0  0
 10 11  1  0  0  0  0
 10 39  1  0  0  0  0
 10 40  1  0  0  0  0
 11 12  1  0  0  0  0
 11 41  1  0  0  0  0
 11 42  1  0  0  0  0
 12 13  2  0  0  0  0
 12 14  1  0  0  0  0
 14 15  2  3  0  0  0
 14 43  1  0  0  0  0
 15 16  1  0  0  0  0
 15 44  1  0  0  0  0
 16 17  1  0  0  0  0
 16 22  2  3  0  0  0
 17 18  1  0  0  0  0
 17 45  1  0  0  0  0
 17 46  1  0  0  0  0
 18 19  2  0  0  0  0
 18 20  1  0  0  0  0
 20 21  1  0  0  0  0
 20 47  1  0  0  0  0
 20 48  1  0  0  0  0
 21 49  1  0  0  0  0
 21 50  1  0  0  0  0
 21 51  1  0  0  0  0
 22 23  1  0  0  0  0
 22 52  1  0  0  0  0
 23 53  1  0  0  0  0
M  END
$$$$
