
 OpenBabel04232216463D

 60 61  0  0  1  0  0  0  0  0999 V2000
    1.0838   -0.7451   -0.2406 C   0  0  0  0  0  0  0  0  0  0  0  0
    2.4603   -1.3525   -0.3073 C   0  0  0  0  0  0  0  0  0  0  0  0
    3.2494   -1.4047    0.9300 C   0  0  0  0  0  3  0  0  0  0  0  0
    4.6399   -0.9315    0.8099 C   0  0  0  0  0  0  0  0  0  0  0  0
    4.3629   -0.0723   -0.5123 C   0  0  3  0  0  0  0  0  0  0  0  0
    5.5370    1.0208   -0.6501 C   0  0  0  0  0  0  0  0  0  0  0  0
    5.6602    2.0980   -1.7331 C   0  0  0  0  0  0  0  0  0  0  0  0
    4.5740    3.1758   -1.8409 C   0  0  0  0  0  0  0  0  0  0  0  0
    4.4432    4.0273   -0.5742 C   0  0  0  0  0  0  0  0  0  0  0  0
    4.9066    4.1108   -3.0137 C   0  0  0  0  0  0  0  0  0  0  0  0
    5.7587   -1.7431    0.9353 C   0  0  0  0  0  0  0  0  0  0  0  0
    6.0974   -2.8711   -0.1558 C   0  0  0  0  0  0  0  0  0  0  0  0
    6.0518   -2.0539   -1.5005 C   0  0  0  0  0  0  0  0  0  0  0  0
    6.7658   -1.5967   -2.7972 C   0  0  0  0  0  0  0  0  0  0  0  0
    5.7821   -0.8326   -3.7610 C   0  0  0  0  0  0  0  0  0  0  0  0
    4.9709   -3.9474    0.1760 C   0  0  0  0  0  0  0  0  0  0  0  0
    5.1191   -4.6321    1.5519 C   0  0  0  0  0  0  0  0  0  0  0  0
    5.5222   -5.7990    1.6947 O   0  0  0  0  0  0  0  0  0  0  0  0
    7.4587   -3.5547   -0.2364 C   0  0  0  0  0  0  0  0  0  0  0  0
    7.3932   -4.8806   -0.9293 C   0  0  0  0  0  0  0  0  0  0  0  0
    6.9893   -4.8966   -2.2302 C   0  0  0  0  0  0  0  0  0  0  0  0
    5.5203   -5.0115   -2.6171 C   0  0  0  0  0  0  0  0  0  0  0  0
    4.9317   -3.9866   -3.3037 C   0  0  0  0  0  0  0  0  0  0  0  0
    3.6506   -3.1680   -3.1483 C   0  0  0  0  0  0  0  0  0  0  0  0
    3.1011   -2.0793   -2.4799 C   0  0  0  0  0  0  0  0  0  0  0  0
    3.2801   -1.0180   -1.3440 C   0  0  0  0  0  0  0  0  0  0  0  0
    0.3199   -1.5071   -0.0988 H   0  0  0  0  0  0  0  0  0  0  0  0
    0.8531   -0.1911   -1.1593 H   0  0  0  0  0  0  0  0  0  0  0  0
    1.0266   -0.0197    0.5782 H   0  0  0  0  0  0  0  0  0  0  0  0
    2.7846   -1.5429    1.8957 H   0  0  0  0  0  0  0  0  0  0  0  0
    3.6297    0.7063   -0.1962 H   0  0  0  0  0  0  0  0  0  0  0  0
    6.5335    0.5693   -0.6008 H   0  0  0  0  0  0  0  0  0  0  0  0
    5.5266    1.5660    0.3095 H   0  0  0  0  0  0  0  0  0  0  0  0
    5.8241    1.6341   -2.7056 H   0  0  0  0  0  0  0  0  0  0  0  0
    6.6051    2.6253   -1.5208 H   0  0  0  0  0  0  0  0  0  0  0  0
    3.6129    2.6902   -2.0436 H   0  0  0  0  0  0  0  0  0  0  0  0
    5.3895    4.5191   -0.3209 H   0  0  0  0  0  0  0  0  0  0  0  0
    4.1295    3.4258    0.2829 H   0  0  0  0  0  0  0  0  0  0  0  0
    3.6926    4.8135   -0.7176 H   0  0  0  0  0  0  0  0  0  0  0  0
    5.8510    4.6439   -2.8493 H   0  0  0  0  0  0  0  0  0  0  0  0
    4.1198    4.8628   -3.1500 H   0  0  0  0  0  0  0  0  0  0  0  0
    4.9978    3.5516   -3.9521 H   0  0  0  0  0  0  0  0  0  0  0  0
    6.6843   -1.1900    1.1306 H   0  0  0  0  0  0  0  0  0  0  0  0
    6.1763   -1.0835   -1.1014 H   0  0  0  0  0  0  0  0  0  0  0  0
    5.0679   -2.2178   -1.7664 H   0  0  0  0  0  0  0  0  0  0  0  0
    7.2445   -2.3782   -3.3743 H   0  0  0  0  0  0  0  0  0  0  0  0
    7.5354   -0.8584   -2.5399 H   0  0  0  0  0  0  0  0  0  0  0  0
    5.2706   -1.5046   -4.4569 H   0  0  0  0  0  0  0  0  0  0  0  0
    6.3032   -0.0956   -4.3756 H   0  0  0  0  0  0  0  0  0  0  0  0
    4.9959   -0.2824   -3.2333 H   0  0  0  0  0  0  0  0  0  0  0  0
    4.8916   -4.7865   -0.5026 H   0  0  0  0  0  0  0  0  0  0  0  0
    3.9673   -3.5546    0.1547 H   0  0  0  0  0  0  0  0  0  0  0  0
    4.8085   -4.0098    2.4079 H   0  0  0  0  0  0  0  0  0  0  0  0
    8.3345   -2.9508   -0.4479 H   0  0  0  0  0  0  0  0  0  0  0  0
    6.9459   -5.6039   -0.2541 H   0  0  0  0  0  0  0  0  0  0  0  0
    7.5599   -4.2884   -2.9250 H   0  0  0  0  0  0  0  0  0  0  0  0
    5.5637   -5.9572   -3.1796 H   0  0  0  0  0  0  0  0  0  0  0  0
    5.1317   -4.0731   -4.3895 H   0  0  0  0  0  0  0  0  0  0  0  0
    2.9970   -3.5465   -3.9378 H   0  0  0  0  0  0  0  0  0  0  0  0
    2.0988   -1.8889   -2.8783 H   0  0  0  0  0  0  0  0  0  0  0  0
  1  2  1  0  0  0  0
  1 27  1  0  0  0  0
  1 28  1  0  0  0  0
  1 29  1  0  0  0  0
  2  3  1  0  0  0  0
  2 26  2  0  0  0  0
  3  4  1  0  0  0  0
  3 30  1  0  0  0  0
  4  5  1  0  0  0  0
  4 11  2  3  0  0  0
  5  6  1  0  0  0  0
  5 26  1  0  0  0  0
  5 31  1  0  0  0  0
  6  7  1  0  0  0  0
  6 32  1  0  0  0  0
  6 33  1  0  0  0  0
  7  8  1  0  0  0  0
  7 34  1  0  0  0  0
  7 35  1  0  0  0  0
  8  9  1  0  0  0  0
  8 10  1  0  0  0  0
  8 36  1  0  0  0  0
  9 37  1  0  0  0  0
  9 38  1  0  0  0  0
  9 39  1  0  0  0  0
 10 40  1  0  0  0  0
 10 41  1  0  0  0  0
 10 42  1  0  0  0  0
 11 12  1  0  0  0  0
 11 43  1  0  0  0  0
 12 13  1  0  0  0  0
 12 16  1  0  0  0  0
 12 19  2  0  0  0  0
 13 14  1  0  0  0  0
 13 44  1  0  0  0  0
 13 45  1  0  0  0  0
 14 15  1  0  0  0  0
 14 46  1  0  0  0  0
 14 47  1  0  0  0  0
 15 48  1  0  0  0  0
 15 49  1  0  0  0  0
 15 50  1  0  0  0  0
 16 17  1  0  0  0  0
 16 51  1  0  0  0  0
 16 52  1  0  0  0  0
 17 18  2  0  0  0  0
 17 53  1  0  0  0  0
 19 20  1  0  0  0  0
 19 54  1  0  0  0  0
 20 21  2  3  0  0  0
 20 55  1  0  0  0  0
 21 22  1  0  0  0  0
 21 56  1  0  0  0  0
 22 23  2  3  0  0  0
 22 57  1  0  0  0  0
 23 24  1  0  0  0  0
 23 58  1  0  0  0  0
 24 25  2  3  0  0  0
 24 59  1  0  0  0  0
 25 26  1  0  0  0  0
 25 60  1  0  0  0  0
M  END
$$$$
