
 OpenBabel04232216553D

234234  0  0  0  0  0  0  0  0999 V2000
   -0.2570   -1.3105    4.3377 C   0  0  0  0  0  0  0  0  0  0  0  0
   -0.1615   -1.4210    2.8889 N   0  0  0  0  0  0  0  0  0  0  0  0
    0.1064   -0.4782    2.0447 C   0  0  0  0  0  0  0  0  0  0  0  0
    1.1328   -1.2767    2.2062 C   0  0  0  0  0  0  0  0  0  0  0  0
    1.9734   -2.4125    2.7150 C   0  0  0  0  0  0  0  0  0  0  0  0
    2.8563   -3.1701    1.7201 C   0  0  0  0  0  0  0  0  0  0  0  0
    3.6448   -4.3113    2.4122 C   0  0  0  0  0  0  0  0  0  0  0  0
    2.7338   -5.3763    3.0365 C   0  0  0  0  0  0  0  0  0  0  0  0
    3.5042   -6.5049    3.7154 C   0  0  0  0  0  0  0  0  0  0  0  0
    2.5280   -7.5106    4.3300 C   0  0  0  0  0  0  0  0  0  0  0  0
    3.2695   -8.6473    5.0205 C   0  0  0  0  0  0  0  0  0  0  0  0
    2.2867   -9.6433    5.6237 C   0  0  0  0  0  0  0  0  0  0  0  0
    3.0346  -10.7753    6.3089 C   0  0  0  0  0  0  0  0  0  0  0  0
    2.0533  -11.7665    6.9094 C   0  0  0  0  0  0  0  0  0  0  0  0
    2.8059  -12.8958    7.5925 C   0  0  0  0  0  0  0  0  0  0  0  0
    1.8260  -13.8888    8.1914 C   0  0  0  0  0  0  0  0  0  0  0  0
    2.5796  -15.0156    8.8739 C   0  0  0  0  0  0  0  0  0  0  0  0
    1.5981  -16.0061    9.4725 C   0  0  0  0  0  0  0  0  0  0  0  0
    2.3521  -17.1318   10.1556 C   0  0  0  0  0  0  0  0  0  0  0  0
    1.3704  -18.1210   10.7538 C   0  0  0  0  0  0  0  0  0  0  0  0
    2.1243  -19.2465   11.4365 C   0  0  0  0  0  0  0  0  0  0  0  0
    1.1424  -20.2357   12.0346 C   0  0  0  0  0  0  0  0  0  0  0  0
    1.8965  -21.3608   12.7171 C   0  0  0  0  0  0  0  0  0  0  0  0
    0.9146  -22.3500   13.3153 C   0  0  0  0  0  0  0  0  0  0  0  0
    1.6688  -23.4751   13.9976 C   0  0  0  0  0  0  0  0  0  0  0  0
    0.6869  -24.4642   14.5957 C   0  0  0  0  0  0  0  0  0  0  0  0
    1.4410  -25.5904   15.2764 C   0  0  0  0  0  0  0  0  0  0  0  0
    0.4591  -26.5795   15.8745 C   0  0  0  0  0  0  0  0  0  0  0  0
    1.2133  -27.7066   16.5534 C   0  0  0  0  0  0  0  0  0  0  0  0
    0.2314  -28.6947   17.1531 C   0  0  0  0  0  0  0  0  0  0  0  0
    0.9855  -29.8218   17.8321 C   0  0  0  0  0  0  0  0  0  0  0  0
    0.0036  -30.8109   18.4303 C   0  0  0  0  0  0  0  0  0  0  0  0
    0.7578  -31.9371   19.1108 C   0  0  0  0  0  0  0  0  0  0  0  0
   -0.2241  -32.9261   19.7090 C   0  0  0  0  0  0  0  0  0  0  0  0
    0.5301  -34.0522   20.3896 C   0  0  0  0  0  0  0  0  0  0  0  0
   -0.4519  -35.0413   20.9877 C   0  0  0  0  0  0  0  0  0  0  0  0
    0.3023  -36.1674   21.6684 C   0  0  0  0  0  0  0  0  0  0  0  0
   -0.6796  -37.1565   22.2665 C   0  0  0  0  0  0  0  0  0  0  0  0
    0.0746  -38.2826   22.9471 C   0  0  0  0  0  0  0  0  0  0  0  0
   -0.9074  -39.2727   23.5435 C   0  0  0  0  0  0  0  0  0  0  0  0
   -0.1532  -40.3999   24.2224 C   0  0  0  0  0  0  0  0  0  0  0  0
   -1.1351  -41.3900   24.8187 C   0  0  0  0  0  0  0  0  0  0  0  0
   -0.3809  -42.5172   25.4976 C   0  0  0  0  0  0  0  0  0  0  0  0
   -1.3629  -43.5072   26.0941 C   0  0  0  0  0  0  0  0  0  0  0  0
   -0.6087  -44.6334   26.7746 C   0  0  0  0  0  0  0  0  0  0  0  0
   -1.5906  -45.6226   27.3726 C   0  0  0  0  0  0  0  0  0  0  0  0
   -0.8364  -46.7496   28.0516 C   0  0  0  0  0  0  0  0  0  0  0  0
   -1.8184  -47.7397   28.6481 C   0  0  0  0  0  0  0  0  0  0  0  0
   -1.0642  -48.8658   29.3287 C   0  0  0  0  0  0  0  0  0  0  0  0
   -2.0460  -49.8553   29.9267 C   0  0  0  0  0  0  0  0  0  0  0  0
   -1.2919  -50.9811   30.6073 C   0  0  0  0  0  0  0  0  0  0  0  0
   -2.2739  -51.9701   31.2055 C   0  0  0  0  0  0  0  0  0  0  0  0
   -1.5197  -53.0973   31.8844 C   0  0  0  0  0  0  0  0  0  0  0  0
   -2.5016  -54.0863   32.4825 C   0  0  0  0  0  0  0  0  0  0  0  0
   -1.7475  -55.2135   33.1614 C   0  0  0  0  0  0  0  0  0  0  0  0
   -2.7294  -56.2016   33.7611 C   0  0  0  0  0  0  0  0  0  0  0  0
   -1.9752  -57.3287   34.4400 C   0  0  0  0  0  0  0  0  0  0  0  0
   -2.9571  -58.3177   35.0383 C   0  0  0  0  0  0  0  0  0  0  0  0
   -2.2030  -59.4439   35.7189 C   0  0  0  0  0  0  0  0  0  0  0  0
   -3.1849  -60.4320   36.3186 C   0  0  0  0  0  0  0  0  0  0  0  0
   -2.4307  -61.5571   37.0009 C   0  0  0  0  0  0  0  0  0  0  0  0
   -3.4126  -62.5461   37.5993 C   0  0  0  0  0  0  0  0  0  0  0  0
   -2.6585  -63.6702   38.2833 C   0  0  0  0  0  0  0  0  0  0  0  0
   -3.6404  -64.6583   38.8831 C   0  0  0  0  0  0  0  0  0  0  0  0
   -2.8862  -65.7813   39.5690 C   0  0  0  0  0  0  0  0  0  0  0  0
   -3.8682  -66.7685   40.1705 C   0  0  0  0  0  0  0  0  0  0  0  0
   -3.1139  -67.8917   40.8566 C   0  0  0  0  0  0  0  0  0  0  0  0
   -4.0960  -68.8798   41.4564 C   0  0  0  0  0  0  0  0  0  0  0  0
   -3.3423  -70.0017   42.1441 C   0  0  0  0  0  0  0  0  0  0  0  0
   -4.3237  -70.9919   42.7428 C   0  0  0  0  0  0  0  0  0  0  0  0
   -3.5702  -72.1139   43.4328 C   0  0  0  0  0  0  0  0  0  0  0  0
   -4.5516  -73.1035   44.0334 C   0  0  0  0  0  0  0  0  0  0  0  0
   -3.7984  -74.2266   44.7240 C   0  0  0  0  0  0  0  0  0  0  0  0
   -4.7787  -75.2197   45.3247 C   0  0  0  0  0  0  0  0  0  0  0  0
   -4.0265  -76.3458   46.0149 C   0  0  0  0  0  0  0  0  0  0  0  0
   -5.0054  -77.3429   46.6177 C   0  0  0  0  0  0  0  0  0  0  0  0
   -4.2543  -78.4721   47.3098 C   0  0  0  0  0  0  0  0  0  0  0  0
   -5.2264  -79.4768   47.9151 C   0  0  0  0  0  0  0  0  0  0  0  0
   -4.4792  -80.6027   48.6052 C   0  0  0  0  0  0  0  0  0  0  0  0
   -1.0614   -0.6373    4.6414 H   0  0  0  0  0  0  0  0  0  0  0  0
    0.6771   -0.9869    4.8096 H   0  0  0  0  0  0  0  0  0  0  0  0
   -0.4898   -2.3087    4.7320 H   0  0  0  0  0  0  0  0  0  0  0  0
   -0.3216    0.3839    1.5897 H   0  0  0  0  0  0  0  0  0  0  0  0
    1.3238   -3.1430    3.1994 H   0  0  0  0  0  0  0  0  0  0  0  0
    2.6261   -1.9961    3.4966 H   0  0  0  0  0  0  0  0  0  0  0  0
    3.5758   -2.4824    1.2595 H   0  0  0  0  0  0  0  0  0  0  0  0
    2.2504   -3.5927    0.9085 H   0  0  0  0  0  0  0  0  0  0  0  0
    4.2979   -3.8897    3.1834 H   0  0  0  0  0  0  0  0  0  0  0  0
    4.2987   -4.7898    1.6728 H   0  0  0  0  0  0  0  0  0  0  0  0
    2.0793   -5.7925    2.2593 H   0  0  0  0  0  0  0  0  0  0  0  0
    2.0886   -4.9234    3.7952 H   0  0  0  0  0  0  0  0  0  0  0  0
    4.1481   -6.0965    4.5040 H   0  0  0  0  0  0  0  0  0  0  0  0
    4.1516   -7.0125    2.9921 H   0  0  0  0  0  0  0  0  0  0  0  0
    1.8751   -7.9197    3.5488 H   0  0  0  0  0  0  0  0  0  0  0  0
    1.8786   -7.0050    5.0568 H   0  0  0  0  0  0  0  0  0  0  0  0
    3.9166   -8.2444    5.8096 H   0  0  0  0  0  0  0  0  0  0  0  0
    3.9176   -9.1599    4.2988 H   0  0  0  0  0  0  0  0  0  0  0  0
    1.6381  -10.0500    4.8383 H   0  0  0  0  0  0  0  0  0  0  0  0
    1.6384   -9.1361    6.3487 H   0  0  0  0  0  0  0  0  0  0  0  0
    3.6831  -10.3724    7.0964 H   0  0  0  0  0  0  0  0  0  0  0  0
    3.6827  -11.2865    5.5856 H   0  0  0  0  0  0  0  0  0  0  0  0
    1.4050  -12.1756    6.1237 H   0  0  0  0  0  0  0  0  0  0  0  0
    1.4039  -11.2607    7.6342 H   0  0  0  0  0  0  0  0  0  0  0  0
    3.4539  -12.4902    8.3792 H   0  0  0  0  0  0  0  0  0  0  0  0
    3.4544  -13.4033    6.8677 H   0  0  0  0  0  0  0  0  0  0  0  0
    1.1789  -14.2961    7.4047 H   0  0  0  0  0  0  0  0  0  0  0  0
    1.1762  -13.3827    8.9159 H   0  0  0  0  0  0  0  0  0  0  0  0
    3.2270  -14.6099    9.6611 H   0  0  0  0  0  0  0  0  0  0  0  0
    3.2284  -15.5244    8.1502 H   0  0  0  0  0  0  0  0  0  0  0  0
    0.9508  -16.4136    8.6862 H   0  0  0  0  0  0  0  0  0  0  0  0
    0.9489  -15.4985   10.1966 H   0  0  0  0  0  0  0  0  0  0  0  0
    2.9993  -16.7251   10.9425 H   0  0  0  0  0  0  0  0  0  0  0  0
    3.0012  -17.6403    9.4321 H   0  0  0  0  0  0  0  0  0  0  0  0
    0.7229  -18.5282    9.9674 H   0  0  0  0  0  0  0  0  0  0  0  0
    0.7213  -17.6131   11.4779 H   0  0  0  0  0  0  0  0  0  0  0  0
    2.7716  -18.8398   12.2234 H   0  0  0  0  0  0  0  0  0  0  0  0
    2.7734  -19.7549   10.7129 H   0  0  0  0  0  0  0  0  0  0  0  0
    0.4952  -20.6426   11.2479 H   0  0  0  0  0  0  0  0  0  0  0  0
    0.4933  -19.7275   12.7584 H   0  0  0  0  0  0  0  0  0  0  0  0
    2.5438  -20.9541   13.5039 H   0  0  0  0  0  0  0  0  0  0  0  0
    2.5456  -21.8692   11.9934 H   0  0  0  0  0  0  0  0  0  0  0  0
    0.2673  -22.7567   12.5285 H   0  0  0  0  0  0  0  0  0  0  0  0
    0.2656  -21.8417   14.0391 H   0  0  0  0  0  0  0  0  0  0  0  0
    2.3162  -23.0685   14.7843 H   0  0  0  0  0  0  0  0  0  0  0  0
    2.3177  -23.9834   13.2737 H   0  0  0  0  0  0  0  0  0  0  0  0
    0.0386  -24.8700   13.8092 H   0  0  0  0  0  0  0  0  0  0  0  0
    0.0388  -23.9562   15.3205 H   0  0  0  0  0  0  0  0  0  0  0  0
    2.0894  -25.1848   16.0628 H   0  0  0  0  0  0  0  0  0  0  0  0
    2.0890  -26.0984   14.5514 H   0  0  0  0  0  0  0  0  0  0  0  0
   -0.1901  -26.9842   15.0883 H   0  0  0  0  0  0  0  0  0  0  0  0
   -0.1880  -26.0716   16.6004 H   0  0  0  0  0  0  0  0  0  0  0  0
    1.8635  -27.3019   17.3389 H   0  0  0  0  0  0  0  0  0  0  0  0
    1.8593  -28.2151   15.8272 H   0  0  0  0  0  0  0  0  0  0  0  0
   -0.4189  -29.0994   16.3678 H   0  0  0  0  0  0  0  0  0  0  0  0
   -0.4147  -28.1862   17.8794 H   0  0  0  0  0  0  0  0  0  0  0  0
    1.6348  -29.4171   18.6183 H   0  0  0  0  0  0  0  0  0  0  0  0
    1.6326  -30.3297   17.1063 H   0  0  0  0  0  0  0  0  0  0  0  0
   -0.6447  -31.2165   17.6438 H   0  0  0  0  0  0  0  0  0  0  0  0
   -0.6444  -30.3029   19.1552 H   0  0  0  0  0  0  0  0  0  0  0  0
    1.4061  -31.5314   19.8974 H   0  0  0  0  0  0  0  0  0  0  0  0
    1.4058  -32.4450   18.3860 H   0  0  0  0  0  0  0  0  0  0  0  0
   -0.8724  -33.3318   18.9225 H   0  0  0  0  0  0  0  0  0  0  0  0
   -0.8722  -32.4181   20.4338 H   0  0  0  0  0  0  0  0  0  0  0  0
    1.1783  -33.6465   21.1761 H   0  0  0  0  0  0  0  0  0  0  0  0
    1.1781  -34.5602   19.6647 H   0  0  0  0  0  0  0  0  0  0  0  0
   -1.1002  -35.4470   20.2012 H   0  0  0  0  0  0  0  0  0  0  0  0
   -1.0999  -34.5333   21.7126 H   0  0  0  0  0  0  0  0  0  0  0  0
    0.9506  -35.7617   22.4549 H   0  0  0  0  0  0  0  0  0  0  0  0
    0.9503  -36.6754   20.9435 H   0  0  0  0  0  0  0  0  0  0  0  0
   -1.3279  -37.5621   21.4799 H   0  0  0  0  0  0  0  0  0  0  0  0
   -1.3277  -36.6486   22.9914 H   0  0  0  0  0  0  0  0  0  0  0  0
    0.7219  -37.8771   23.7345 H   0  0  0  0  0  0  0  0  0  0  0  0
    0.7236  -38.7897   22.2224 H   0  0  0  0  0  0  0  0  0  0  0  0
   -1.5555  -39.6773   22.7563 H   0  0  0  0  0  0  0  0  0  0  0  0
   -1.5556  -38.7659   24.2690 H   0  0  0  0  0  0  0  0  0  0  0  0
    0.4950  -39.9954   25.0096 H   0  0  0  0  0  0  0  0  0  0  0  0
    0.4950  -40.9066   23.4968 H   0  0  0  0  0  0  0  0  0  0  0  0
   -1.7833  -41.7945   24.0315 H   0  0  0  0  0  0  0  0  0  0  0  0
   -1.7833  -40.8832   25.5443 H   0  0  0  0  0  0  0  0  0  0  0  0
    0.2672  -42.1126   26.2848 H   0  0  0  0  0  0  0  0  0  0  0  0
    0.2672  -43.0240   24.7721 H   0  0  0  0  0  0  0  0  0  0  0  0
   -2.0102  -43.9127   25.3067 H   0  0  0  0  0  0  0  0  0  0  0  0
   -2.0119  -43.0001   26.8187 H   0  0  0  0  0  0  0  0  0  0  0  0
    0.0396  -44.2279   27.5612 H   0  0  0  0  0  0  0  0  0  0  0  0
    0.0394  -45.1412   26.0496 H   0  0  0  0  0  0  0  0  0  0  0  0
   -2.2398  -46.0272   26.5863 H   0  0  0  0  0  0  0  0  0  0  0  0
   -2.2378  -45.1149   28.0984 H   0  0  0  0  0  0  0  0  0  0  0  0
   -0.1883  -46.3450   28.8388 H   0  0  0  0  0  0  0  0  0  0  0  0
   -0.1883  -47.2566   27.3261 H   0  0  0  0  0  0  0  0  0  0  0  0
   -2.4657  -48.1452   27.8607 H   0  0  0  0  0  0  0  0  0  0  0  0
   -2.4674  -47.2326   29.3727 H   0  0  0  0  0  0  0  0  0  0  0  0
   -0.4159  -48.4602   30.1152 H   0  0  0  0  0  0  0  0  0  0  0  0
   -0.4161  -49.3737   28.6038 H   0  0  0  0  0  0  0  0  0  0  0  0
   -2.6944  -50.2605   29.1402 H   0  0  0  0  0  0  0  0  0  0  0  0
   -2.6942  -49.3470   30.6517 H   0  0  0  0  0  0  0  0  0  0  0  0
   -0.6436  -50.5755   31.3938 H   0  0  0  0  0  0  0  0  0  0  0  0
   -0.6440  -51.4890   29.8824 H   0  0  0  0  0  0  0  0  0  0  0  0
   -2.9231  -52.3748   30.4192 H   0  0  0  0  0  0  0  0  0  0  0  0
   -2.9210  -51.4624   31.9313 H   0  0  0  0  0  0  0  0  0  0  0  0
   -0.8705  -52.6926   32.6706 H   0  0  0  0  0  0  0  0  0  0  0  0
   -0.8726  -53.6050   31.1585 H   0  0  0  0  0  0  0  0  0  0  0  0
   -3.1509  -54.4909   31.6963 H   0  0  0  0  0  0  0  0  0  0  0  0
   -3.1487  -53.5786   33.2084 H   0  0  0  0  0  0  0  0  0  0  0  0
   -1.0972  -54.8088   33.9468 H   0  0  0  0  0  0  0  0  0  0  0  0
   -1.1014  -55.7220   32.4352 H   0  0  0  0  0  0  0  0  0  0  0  0
   -3.3797  -56.6063   32.9757 H   0  0  0  0  0  0  0  0  0  0  0  0
   -3.3754  -55.6931   34.4873 H   0  0  0  0  0  0  0  0  0  0  0  0
   -1.3260  -56.9240   35.2262 H   0  0  0  0  0  0  0  0  0  0  0  0
   -1.3281  -57.8366   33.7142 H   0  0  0  0  0  0  0  0  0  0  0  0
   -3.6055  -58.7234   34.2518 H   0  0  0  0  0  0  0  0  0  0  0  0
   -3.6051  -57.8097   35.7632 H   0  0  0  0  0  0  0  0  0  0  0  0
   -1.5537  -59.0381   36.5045 H   0  0  0  0  0  0  0  0  0  0  0  0
   -1.5559  -59.9527   34.9937 H   0  0  0  0  0  0  0  0  0  0  0  0
   -3.8333  -60.8388   35.5327 H   0  0  0  0  0  0  0  0  0  0  0  0
   -3.8328  -59.9229   37.0428 H   0  0  0  0  0  0  0  0  0  0  0  0
   -1.7834  -61.1502   37.7876 H   0  0  0  0  0  0  0  0  0  0  0  0
   -1.7817  -62.0655   36.2772 H   0  0  0  0  0  0  0  0  0  0  0  0
   -4.0592  -62.9540   36.8123 H   0  0  0  0  0  0  0  0  0  0  0  0
   -4.0624  -62.0375   38.3220 H   0  0  0  0  0  0  0  0  0  0  0  0
   -2.0111  -63.2622   39.0693 H   0  0  0  0  0  0  0  0  0  0  0  0
   -2.0095  -64.1797   37.5603 H   0  0  0  0  0  0  0  0  0  0  0  0
   -4.2870  -65.0673   38.0969 H   0  0  0  0  0  0  0  0  0  0  0  0
   -4.2902  -64.1485   39.6051 H   0  0  0  0  0  0  0  0  0  0  0  0
   -2.2388  -65.3721   40.3544 H   0  0  0  0  0  0  0  0  0  0  0  0
   -2.2374  -66.2919   38.8467 H   0  0  0  0  0  0  0  0  0  0  0  0
   -4.5156  -67.1776   39.3850 H   0  0  0  0  0  0  0  0  0  0  0  0
   -4.5170  -66.2578   40.8927 H   0  0  0  0  0  0  0  0  0  0  0  0
   -2.4676  -67.4822   41.6426 H   0  0  0  0  0  0  0  0  0  0  0  0
   -2.4641  -68.4013   40.1346 H   0  0  0  0  0  0  0  0  0  0  0  0
   -4.7413  -69.2898   40.6699 H   0  0  0  0  0  0  0  0  0  0  0  0
   -4.7467  -68.3699   42.1773 H   0  0  0  0  0  0  0  0  0  0  0  0
   -2.6975  -69.5917   42.9314 H   0  0  0  0  0  0  0  0  0  0  0  0
   -2.6900  -70.5111   41.4236 H   0  0  0  0  0  0  0  0  0  0  0  0
   -4.9672  -71.4025   41.9550 H   0  0  0  0  0  0  0  0  0  0  0  0
   -4.9766  -70.4819   43.4621 H   0  0  0  0  0  0  0  0  0  0  0  0
   -2.9256  -71.7019   44.2191 H   0  0  0  0  0  0  0  0  0  0  0  0
   -2.9182  -72.6233   42.7125 H   0  0  0  0  0  0  0  0  0  0  0  0
   -5.1960  -73.5138   43.2462 H   0  0  0  0  0  0  0  0  0  0  0  0
   -5.2034  -72.5924   44.7527 H   0  0  0  0  0  0  0  0  0  0  0  0
   -3.1547  -73.8141   45.5107 H   0  0  0  0  0  0  0  0  0  0  0  0
   -3.1454  -74.7346   44.0037 H   0  0  0  0  0  0  0  0  0  0  0  0
   -5.4230  -75.6284   44.5365 H   0  0  0  0  0  0  0  0  0  0  0  0
   -5.4305  -74.7091   46.0442 H   0  0  0  0  0  0  0  0  0  0  0  0
   -3.3816  -75.9334   46.8006 H   0  0  0  0  0  0  0  0  0  0  0  0
   -3.3741  -76.8524   45.2931 H   0  0  0  0  0  0  0  0  0  0  0  0
   -5.6494  -77.7508   45.8291 H   0  0  0  0  0  0  0  0  0  0  0  0
   -5.6571  -76.8319   47.3368 H   0  0  0  0  0  0  0  0  0  0  0  0
   -3.6097  -78.0581   48.0952 H   0  0  0  0  0  0  0  0  0  0  0  0
   -3.6002  -78.9761   46.5873 H   0  0  0  0  0  0  0  0  0  0  0  0
   -5.8694  -79.8928   47.1307 H   0  0  0  0  0  0  0  0  0  0  0  0
   -5.8791  -78.9748   48.6388 H   0  0  0  0  0  0  0  0  0  0  0  0
   -3.8394  -81.1380   47.8966 H   0  0  0  0  0  0  0  0  0  0  0  0
   -5.1881  -81.3163   49.0349 H   0  0  0  0  0  0  0  0  0  0  0  0
   -3.8491  -80.2157   49.4121 H   0  0  0  0  0  0  0  0  0  0  0  0
  1  2  1  0  0  0  0
  1 80  1  0  0  0  0
  1 81  1  0  0  0  0
  1 82  1  0  0  0  0
  2  3  1  0  0  0  0
  2  4  1  0  0  0  0
  3  4  2  0  0  0  0
  3 83  1  0  0  0  0
  4  5  1  0  0  0  0
  5  6  1  0  0  0  0
  5 84  1  0  0  0  0
  5 85  1  0  0  0  0
  6  7  1  0  0  0  0
  6 86  1  0  0  0  0
  6 87  1  0  0  0  0
  7  8  1  0  0  0  0
  7 88  1  0  0  0  0
  7 89  1  0  0  0  0
  8  9  1  0  0  0  0
  8 90  1  0  0  0  0
  8 91  1  0  0  0  0
  9 10  1  0  0  0  0
  9 92  1  0  0  0  0
  9 93  1  0  0  0  0
 10 11  1  0  0  0  0
 10 94  1  0  0  0  0
 10 95  1  0  0  0  0
 11 12  1  0  0  0  0
 11 96  1  0  0  0  0
 11 97  1  0  0  0  0
 12 13  1  0  0  0  0
 12 98  1  0  0  0  0
 12 99  1  0  0  0  0
 13 14  1  0  0  0  0
 13100  1  0  0  0  0
 13101  1  0  0  0  0
 14 15  1  0  0  0  0
 14102  1  0  0  0  0
 14103  1  0  0  0  0
 15 16  1  0  0  0  0
 15104  1  0  0  0  0
 15105  1  0  0  0  0
 16 17  1  0  0  0  0
 16106  1  0  0  0  0
 16107  1  0  0  0  0
 17 18  1  0  0  0  0
 17108  1  0  0  0  0
 17109  1  0  0  0  0
 18 19  1  0  0  0  0
 18110  1  0  0  0  0
 18111  1  0  0  0  0
 19 20  1  0  0  0  0
 19112  1  0  0  0  0
 19113  1  0  0  0  0
 20 21  1  0  0  0  0
 20114  1  0  0  0  0
 20115  1  0  0  0  0
 21 22  1  0  0  0  0
 21116  1  0  0  0  0
 21117  1  0  0  0  0
 22 23  1  0  0  0  0
 22118  1  0  0  0  0
 22119  1  0  0  0  0
 23 24  1  0  0  0  0
 23120  1  0  0  0  0
 23121  1  0  0  0  0
 24 25  1  0  0  0  0
 24122  1  0  0  0  0
 24123  1  0  0  0  0
 25 26  1  0  0  0  0
 25124  1  0  0  0  0
 25125  1  0  0  0  0
 26 27  1  0  0  0  0
 26126  1  0  0  0  0
 26127  1  0  0  0  0
 27 28  1  0  0  0  0
 27128  1  0  0  0  0
 27129  1  0  0  0  0
 28 29  1  0  0  0  0
 28130  1  0  0  0  0
 28131  1  0  0  0  0
 29 30  1  0  0  0  0
 29132  1  0  0  0  0
 29133  1  0  0  0  0
 30 31  1  0  0  0  0
 30134  1  0  0  0  0
 30135  1  0  0  0  0
 31 32  1  0  0  0  0
 31136  1  0  0  0  0
 31137  1  0  0  0  0
 32 33  1  0  0  0  0
 32138  1  0  0  0  0
 32139  1  0  0  0  0
 33 34  1  0  0  0  0
 33140  1  0  0  0  0
 33141  1  0  0  0  0
 34 35  1  0  0  0  0
 34142  1  0  0  0  0
 34143  1  0  0  0  0
 35 36  1  0  0  0  0
 35144  1  0  0  0  0
 35145  1  0  0  0  0
 36 37  1  0  0  0  0
 36146  1  0  0  0  0
 36147  1  0  0  0  0
 37 38  1  0  0  0  0
 37148  1  0  0  0  0
 37149  1  0  0  0  0
 38 39  1  0  0  0  0
 38150  1  0  0  0  0
 38151  1  0  0  0  0
 39 40  1  0  0  0  0
 39152  1  0  0  0  0
 39153  1  0  0  0  0
 40 41  1  0  0  0  0
 40154  1  0  0  0  0
 40155  1  0  0  0  0
 41 42  1  0  0  0  0
 41156  1  0  0  0  0
 41157  1  0  0  0  0
 42 43  1  0  0  0  0
 42158  1  0  0  0  0
 42159  1  0  0  0  0
 43 44  1  0  0  0  0
 43160  1  0  0  0  0
 43161  1  0  0  0  0
 44 45  1  0  0  0  0
 44162  1  0  0  0  0
 44163  1  0  0  0  0
 45 46  1  0  0  0  0
 45164  1  0  0  0  0
 45165  1  0  0  0  0
 46 47  1  0  0  0  0
 46166  1  0  0  0  0
 46167  1  0  0  0  0
 47 48  1  0  0  0  0
 47168  1  0  0  0  0
 47169  1  0  0  0  0
 48 49  1  0  0  0  0
 48170  1  0  0  0  0
 48171  1  0  0  0  0
 49 50  1  0  0  0  0
 49172  1  0  0  0  0
 49173  1  0  0  0  0
 50 51  1  0  0  0  0
 50174  1  0  0  0  0
 50175  1  0  0  0  0
 51 52  1  0  0  0  0
 51176  1  0  0  0  0
 51177  1  0  0  0  0
 52 53  1  0  0  0  0
 52178  1  0  0  0  0
 52179  1  0  0  0  0
 53 54  1  0  0  0  0
 53180  1  0  0  0  0
 53181  1  0  0  0  0
 54 55  1  0  0  0  0
 54182  1  0  0  0  0
 54183  1  0  0  0  0
 55 56  1  0  0  0  0
 55184  1  0  0  0  0
 55185  1  0  0  0  0
 56 57  1  0  0  0  0
 56186  1  0  0  0  0
 56187  1  0  0  0  0
 57 58  1  0  0  0  0
 57188  1  0  0  0  0
 57189  1  0  0  0  0
 58 59  1  0  0  0  0
 58190  1  0  0  0  0
 58191  1  0  0  0  0
 59 60  1  0  0  0  0
 59192  1  0  0  0  0
 59193  1  0  0  0  0
 60 61  1  0  0  0  0
 60194  1  0  0  0  0
 60195  1  0  0  0  0
 61 62  1  0  0  0  0
 61196  1  0  0  0  0
 61197  1  0  0  0  0
 62 63  1  0  0  0  0
 62198  1  0  0  0  0
 62199  1  0  0  0  0
 63 64  1  0  0  0  0
 63200  1  0  0  0  0
 63201  1  0  0  0  0
 64 65  1  0  0  0  0
 64202  1  0  0  0  0
 64203  1  0  0  0  0
 65 66  1  0  0  0  0
 65204  1  0  0  0  0
 65205  1  0  0  0  0
 66 67  1  0  0  0  0
 66206  1  0  0  0  0
 66207  1  0  0  0  0
 67 68  1  0  0  0  0
 67208  1  0  0  0  0
 67209  1  0  0  0  0
 68 69  1  0  0  0  0
 68210  1  0  0  0  0
 68211  1  0  0  0  0
 69 70  1  0  0  0  0
 69212  1  0  0  0  0
 69213  1  0  0  0  0
 70 71  1  0  0  0  0
 70214  1  0  0  0  0
 70215  1  0  0  0  0
 71 72  1  0  0  0  0
 71216  1  0  0  0  0
 71217  1  0  0  0  0
 72 73  1  0  0  0  0
 72218  1  0  0  0  0
 72219  1  0  0  0  0
 73 74  1  0  0  0  0
 73220  1  0  0  0  0
 73221  1  0  0  0  0
 74 75  1  0  0  0  0
 74222  1  0  0  0  0
 74223  1  0  0  0  0
 75 76  1  0  0  0  0
 75224  1  0  0  0  0
 75225  1  0  0  0  0
 76 77  1  0  0  0  0
 76226  1  0  0  0  0
 76227  1  0  0  0  0
 77 78  1  0  0  0  0
 77228  1  0  0  0  0
 77229  1  0  0  0  0
 78 79  1  0  0  0  0
 78230  1  0  0  0  0
 78231  1  0  0  0  0
 79232  1  0  0  0  0
 79233  1  0  0  0  0
 79234  1  0  0  0  0
M  END
$$$$
