
 OpenBabel04232216393D

 68 68  0  0  0  0  0  0  0  0999 V2000
   14.2956   -2.2856   -4.9553 C   0  0  0  0  0  0  0  0  0  0  0  0
   15.6364   -2.9956   -4.1722 C   0  0  0  0  0  0  0  0  0  0  0  0
   13.7549   -2.7462   -3.1202 C   0  0  0  0  0  0  0  0  0  0  0  0
   12.0388   -2.0576   -2.6641 C   0  0  0  0  0  0  0  0  0  0  0  0
   10.1794   -2.2133   -2.3630 C   0  0  0  0  0  0  0  0  0  0  0  0
    8.7741   -1.9880   -1.5478 C   0  0  0  0  0  0  0  0  0  0  0  0
    7.7342   -3.3315   -1.8726 C   0  0  0  0  0  0  0  0  0  0  0  0
    8.7069   -4.2669   -1.8571 C   0  0  0  0  0  0  0  0  0  0  0  0
    9.4069   -4.6738   -3.1264 C   0  0  0  0  0  0  0  0  0  0  0  0
   10.7505   -4.8228   -3.2184 C   0  0  0  0  0  0  0  0  0  0  0  0
   11.5485   -5.3176   -4.3859 C   0  0  0  0  0  0  0  0  0  0  0  0
   13.0326   -5.2830   -4.1579 C   0  0  0  0  0  0  0  0  0  0  0  0
   13.9597   -5.8944   -4.8810 C   0  0  0  0  0  0  0  0  0  0  0  0
   15.3458   -5.8084   -4.5101 C   0  0  0  0  0  0  0  0  0  0  0  0
   16.2814   -6.3800   -5.2563 C   0  0  0  0  0  0  0  0  0  0  0  0
   17.6770   -6.3215   -5.0223 C   0  0  0  0  0  0  0  0  0  0  0  0
   18.5122   -7.0424   -5.7612 C   0  0  0  0  0  0  0  0  0  0  0  0
   19.8494   -7.1216   -5.3208 C   0  0  0  0  0  0  0  0  0  0  0  0
   20.8147   -7.7353   -5.9782 C   0  0  0  0  0  0  0  0  0  0  0  0
   22.0820   -7.7436   -5.3323 C   0  0  0  0  0  0  0  0  0  0  0  0
   23.0787   -8.1908   -6.0723 C   0  0  0  0  0  0  0  0  0  0  0  0
   24.4498   -8.1911   -5.8139 C   0  0  0  0  0  0  0  0  0  0  0  0
   25.1314   -8.8192   -6.7607 C   0  0  0  0  0  0  0  0  0  0  0  0
   26.4426   -9.0787   -6.5280 C   0  0  0  0  0  0  0  0  0  0  0  0
   27.1261   -9.6261   -7.5383 C   0  0  0  0  0  0  0  0  0  0  0  0
   28.4279   -9.8449   -7.1393 C   0  0  0  0  0  0  0  0  0  0  0  0
   28.6151   -8.5284   -7.4683 C   0  0  0  0  0  0  0  0  0  0  0  0
   27.5633   -6.9653   -6.8726 C   0  0  0  0  0  0  0  0  0  0  0  0
   25.9223   -6.0493   -6.4799 C   0  0  0  0  0  0  0  0  0  0  0  0
   23.9045   -5.5696   -6.2472 C   0  0  0  0  0  0  0  0  0  0  0  0
   22.0910   -4.7907   -5.7982 C   0  0  0  0  0  0  0  0  0  0  0  0
   19.9118   -4.2731   -5.3527 C   0  0  0  0  0  0  0  0  0  0  0  0
   17.7798   -3.5598   -4.6345 C   0  0  0  0  0  3  0  0  0  0  0  0
   12.9187   -2.4354   -4.9363 H   0  0  0  0  0  0  0  0  0  0  0  0
   13.2967   -1.4795   -4.4191 H   0  0  0  0  0  0  0  0  0  0  0  0
   12.6498   -3.3340   -3.4006 H   0  0  0  0  0  0  0  0  0  0  0  0
   11.1117   -1.1580   -2.8163 H   0  0  0  0  0  0  0  0  0  0  0  0
    8.9388   -1.8361   -3.0942 H   0  0  0  0  0  0  0  0  0  0  0  0
    8.4524   -1.4457   -0.5705 H   0  0  0  0  0  0  0  0  0  0  0  0
    6.9974   -3.4473   -2.7181 H   0  0  0  0  0  0  0  0  0  0  0  0
    9.3819   -3.9428   -1.0425 H   0  0  0  0  0  0  0  0  0  0  0  0
    8.8306   -4.7223   -4.0484 H   0  0  0  0  0  0  0  0  0  0  0  0
   11.4058   -4.6602   -2.3648 H   0  0  0  0  0  0  0  0  0  0  0  0
   11.2592   -4.8905   -5.3579 H   0  0  0  0  0  0  0  0  0  0  0  0
   11.3202   -6.3700   -4.3022 H   0  0  0  0  0  0  0  0  0  0  0  0
   13.4559   -4.8281   -3.2723 H   0  0  0  0  0  0  0  0  0  0  0  0
   13.6375   -6.4912   -5.7141 H   0  0  0  0  0  0  0  0  0  0  0  0
   15.6239   -5.2397   -3.6251 H   0  0  0  0  0  0  0  0  0  0  0  0
   15.9671   -6.9854   -6.0871 H   0  0  0  0  0  0  0  0  0  0  0  0
   18.1044   -5.7152   -4.2271 H   0  0  0  0  0  0  0  0  0  0  0  0
   18.2026   -7.6463   -6.5948 H   0  0  0  0  0  0  0  0  0  0  0  0
   20.1026   -6.5655   -4.4194 H   0  0  0  0  0  0  0  0  0  0  0  0
   20.6888   -8.1670   -6.9635 H   0  0  0  0  0  0  0  0  0  0  0  0
   22.1207   -7.2709   -4.3475 H   0  0  0  0  0  0  0  0  0  0  0  0
   22.8841   -8.5086   -7.0903 H   0  0  0  0  0  0  0  0  0  0  0  0
   24.9369   -7.5317   -5.0730 H   0  0  0  0  0  0  0  0  0  0  0  0
   24.8478   -9.2602   -7.7015 H   0  0  0  0  0  0  0  0  0  0  0  0
   26.8871   -8.5975   -5.6175 H   0  0  0  0  0  0  0  0  0  0  0  0
   27.0337   -9.8415   -8.6034 H   0  0  0  0  0  0  0  0  0  0  0  0
   27.9793  -10.6783   -6.5275 H   0  0  0  0  0  0  0  0  0  0  0  0
   29.5940   -9.0848   -8.2201 H   0  0  0  0  0  0  0  0  0  0  0  0
   28.8832   -7.0600   -6.6384 H   0  0  0  0  0  0  0  0  0  0  0  0
   26.3211   -6.6910   -7.6680 H   0  0  0  0  0  0  0  0  0  0  0  0
   24.3972   -6.1314   -7.2603 H   0  0  0  0  0  0  0  0  0  0  0  0
   22.2196   -5.6701   -6.6987 H   0  0  0  0  0  0  0  0  0  0  0  0
   19.8468   -5.0599   -6.1776 H   0  0  0  0  0  0  0  0  0  0  0  0
   20.4114   -4.6396   -4.3893 H   0  0  0  0  0  0  0  0  0  0  0  0
   17.4100   -3.9006   -3.6174 H   0  0  0  0  0  0  0  0  0  0  0  0
  1  2  2  0  0  0  0
  1 34  1  0  0  0  0
  1 35  1  0  0  0  0
  2  3  1  0  0  0  0
  2 33  1  0  0  0  0
  3  4  2  3  0  0  0
  3 36  1  0  0  0  0
  4  5  1  0  0  0  0
  4 37  1  0  0  0  0
  5  6  2  3  0  0  0
  5 38  1  0  0  0  0
  6  7  1  0  0  0  0
  6 39  1  0  0  0  0
  7  8  2  3  0  0  0
  7 40  1  0  0  0  0
  8  9  1  0  0  0  0
  8 41  1  0  0  0  0
  9 10  2  3  0  0  0
  9 42  1  0  0  0  0
 10 11  1  0  0  0  0
 10 43  1  0  0  0  0
 11 12  1  0  0  0  0
 11 44  1  0  0  0  0
 11 45  1  0  0  0  0
 12 13  2  3  0  0  0
 12 46  1  0  0  0  0
 13 14  1  0  0  0  0
 13 47  1  0  0  0  0
 14 15  2  3  0  0  0
 14 48  1  0  0  0  0
 15 16  1  0  0  0  0
 15 49  1  0  0  0  0
 16 17  2  3  0  0  0
 16 50  1  0  0  0  0
 17 18  1  0  0  0  0
 17 51  1  0  0  0  0
 18 19  2  3  0  0  0
 18 52  1  0  0  0  0
 19 20  1  0  0  0  0
 19 53  1  0  0  0  0
 20 21  2  3  0  0  0
 20 54  1  0  0  0  0
 21 22  1  0  0  0  0
 21 55  1  0  0  0  0
 22 23  2  3  0  0  0
 22 56  1  0  0  0  0
 23 24  1  0  0  0  0
 23 57  1  0  0  0  0
 24 25  2  3  0  0  0
 24 58  1  0  0  0  0
 25 26  1  0  0  0  0
 25 59  1  0  0  0  0
 26 27  2  3  0  0  0
 26 60  1  0  0  0  0
 27 28  1  0  0  0  0
 27 61  1  0  0  0  0
 28 29  2  3  0  0  0
 28 62  1  0  0  0  0
 29 30  1  0  0  0  0
 29 63  1  0  0  0  0
 30 31  2  3  0  0  0
 30 64  1  0  0  0  0
 31 32  1  0  0  0  0
 31 65  1  0  0  0  0
 32 33  1  0  0  0  0
 32 66  1  0  0  0  0
 32 67  1  0  0  0  0
 33 68  1  0  0  0  0
M  END
$$$$
