
 OpenBabel04232216503D

 69 70  0  0  1  0  0  0  0  0999 V2000
    7.3104   -5.5590   -1.4292 C   0  0  0  0  0  0  0  0  0  0  0  0
    8.6371   -5.4776   -2.9415 C   0  0  3  0  0  0  0  0  0  0  0  0
    7.2946   -4.0566   -2.9384 C   0  0  0  0  0  3  0  0  0  0  0  0
    6.0601   -2.8333   -2.0450 C   0  0  0  0  0  0  0  0  0  0  0  0
    5.9369   -1.7834   -3.2227 C   0  0  0  0  0  0  0  0  0  0  0  0
    7.3390   -1.2509   -3.2559 C   0  0  0  0  0  0  0  0  0  0  0  0
    7.8367   -2.0782   -4.3473 C   0  0  0  0  0  0  0  0  0  0  0  0
    9.1823   -2.4296   -3.9315 C   0  0  0  0  0  0  0  0  0  0  0  0
    9.4124   -3.4096   -5.0380 C   0  0  0  0  0  0  0  0  0  0  0  0
   10.8102   -3.4497   -4.7883 C   0  0  0  0  0  0  0  0  0  0  0  0
   11.5447   -4.2535   -5.7531 C   0  0  0  0  0  0  0  0  0  0  0  0
   12.8545   -3.9272   -5.0110 C   0  0  0  0  0  0  0  0  0  0  0  0
   14.1866   -4.4148   -5.0180 N   0  0  0  0  0  0  0  0  0  0  0  0
   14.9084   -4.4188   -6.2668 C   0  0  0  0  0  0  0  0  0  0  0  0
   14.1229   -5.2467   -7.2871 C   0  0  0  0  0  0  0  0  0  0  0  0
   14.0058   -5.0459   -8.4852 O   0  0  0  0  0  0  0  0  0  0  0  0
   13.6675   -6.5307   -6.6533 C   0  0  0  0  0  0  0  0  0  0  0  0
   12.4395   -6.6428   -6.0901 C   0  0  0  0  0  0  0  0  0  0  0  0
   11.7820   -7.2051   -4.7428 C   0  0  0  0  0  0  0  0  0  0  0  0
   13.3964   -8.5826   -5.2479 C   0  0  0  0  0  0  0  0  0  0  0  0
   14.1187   -9.5587   -6.8917 C   0  0  0  0  0  0  0  0  0  0  0  0
   15.6143   -9.9500   -8.1061 C   0  0  0  0  0  0  0  0  0  0  0  0
   17.3559  -10.3570   -8.3203 C   0  0  0  0  0  0  0  0  0  0  0  0
   18.1274   -9.7972   -7.1607 C   0  0  0  0  0  0  0  0  0  0  0  0
   16.9164   -9.7587   -5.8399 C   0  0  0  0  0  0  0  0  0  0  0  0
   15.3512   -8.7238   -5.1600 C   0  0  0  0  0  0  0  0  0  0  0  0
   10.4159   -6.3581   -3.7749 C   0  0  0  0  0  0  0  0  0  0  0  0
    6.3395   -4.7659   -1.1676 H   0  0  0  0  0  0  0  0  0  0  0  0
    7.5921   -4.6968   -0.7183 H   0  0  0  0  0  0  0  0  0  0  0  0
    6.3055   -5.9010   -1.8866 H   0  0  0  0  0  0  0  0  0  0  0  0
    9.2925   -4.7862   -2.2448 H   0  0  0  0  0  0  0  0  0  0  0  0
    6.2143   -4.4081   -3.2059 H   0  0  0  0  0  0  0  0  0  0  0  0
    6.1462   -2.6426   -0.8757 H   0  0  0  0  0  0  0  0  0  0  0  0
    5.8993   -1.5889   -1.6974 H   0  0  0  0  0  0  0  0  0  0  0  0
    5.2407   -0.9305   -3.3644 H   0  0  0  0  0  0  0  0  0  0  0  0
    5.5454   -2.4645   -3.9874 H   0  0  0  0  0  0  0  0  0  0  0  0
    7.8878   -1.4482   -2.2974 H   0  0  0  0  0  0  0  0  0  0  0  0
    7.4984   -0.1877   -3.3933 H   0  0  0  0  0  0  0  0  0  0  0  0
    7.6822   -1.6439   -5.3171 H   0  0  0  0  0  0  0  0  0  0  0  0
    7.3142   -3.0215   -4.5665 H   0  0  0  0  0  0  0  0  0  0  0  0
    9.3934   -2.8621   -2.9191 H   0  0  0  0  0  0  0  0  0  0  0  0
    9.7860   -1.5164   -3.9037 H   0  0  0  0  0  0  0  0  0  0  0  0
    9.1705   -3.0002   -6.0161 H   0  0  0  0  0  0  0  0  0  0  0  0
    8.9145   -4.3862   -4.9579 H   0  0  0  0  0  0  0  0  0  0  0  0
   10.9337   -3.8312   -3.7622 H   0  0  0  0  0  0  0  0  0  0  0  0
   11.1856   -2.4273   -4.8118 H   0  0  0  0  0  0  0  0  0  0  0  0
   11.4092   -3.9235   -6.7847 H   0  0  0  0  0  0  0  0  0  0  0  0
   10.9838   -5.1937   -5.7012 H   0  0  0  0  0  0  0  0  0  0  0  0
   12.6555   -4.2306   -3.9689 H   0  0  0  0  0  0  0  0  0  0  0  0
   12.9588   -2.8430   -5.0543 H   0  0  0  0  0  0  0  0  0  0  0  0
   14.0898   -5.3702   -4.6816 H   0  0  0  0  0  0  0  0  0  0  0  0
   15.7488   -5.0337   -5.9403 H   0  0  0  0  0  0  0  0  0  0  0  0
   15.4199   -3.5135   -6.6067 H   0  0  0  0  0  0  0  0  0  0  0  0
   14.6179   -6.7860   -6.2018 H   0  0  0  0  0  0  0  0  0  0  0  0
   11.8479   -7.1623   -6.8474 H   0  0  0  0  0  0  0  0  0  0  0  0
   12.7849   -9.5082   -5.0310 H   0  0  0  0  0  0  0  0  0  0  0  0
   13.2993  -10.0105   -7.3993 H   0  0  0  0  0  0  0  0  0  0  0  0
   14.4927  -10.3922   -6.2676 H   0  0  0  0  0  0  0  0  0  0  0  0
   15.4898   -9.4180   -9.0519 H   0  0  0  0  0  0  0  0  0  0  0  0
   15.3680  -11.0093   -8.3062 H   0  0  0  0  0  0  0  0  0  0  0  0
   17.8221  -10.0145   -9.2996 H   0  0  0  0  0  0  0  0  0  0  0  0
   17.6380  -11.4511   -8.4905 H   0  0  0  0  0  0  0  0  0  0  0  0
   18.7377   -8.9252   -7.4943 H   0  0  0  0  0  0  0  0  0  0  0  0
   18.9942  -10.5342   -7.0047 H   0  0  0  0  0  0  0  0  0  0  0  0
   17.7294   -9.6865   -5.0064 H   0  0  0  0  0  0  0  0  0  0  0  0
   16.6680  -10.7844   -5.8762 H   0  0  0  0  0  0  0  0  0  0  0  0
   15.6468   -8.2118   -6.0997 H   0  0  0  0  0  0  0  0  0  0  0  0
   15.2863   -9.6395   -4.5982 H   0  0  0  0  0  0  0  0  0  0  0  0
   10.8775   -5.6413   -3.2457 H   0  0  0  0  0  0  0  0  0  0  0  0
  1  2  1  0  0  0  0
  1 28  1  0  0  0  0
  1 29  1  0  0  0  0
  1 30  1  0  0  0  0
  2  3  1  0  0  0  0
  2 27  1  0  0  0  0
  2 31  1  0  0  0  0
  3  4  1  0  0  0  0
  3 32  1  0  0  0  0
  4  5  1  0  0  0  0
  4 33  1  0  0  0  0
  4 34  1  0  0  0  0
  5  6  1  0  0  0  0
  5 35  1  0  0  0  0
  5 36  1  0  0  0  0
  6  7  1  0  0  0  0
  6 37  1  0  0  0  0
  6 38  1  0  0  0  0
  7  8  1  0  0  0  0
  7 39  1  0  0  0  0
  7 40  1  0  0  0  0
  8  9  1  0  0  0  0
  8 41  1  0  0  0  0
  8 42  1  0  0  0  0
  9 10  1  0  0  0  0
  9 43  1  0  0  0  0
  9 44  1  0  0  0  0
 10 11  1  0  0  0  0
 10 45  1  0  0  0  0
 10 46  1  0  0  0  0
 11 12  1  0  0  0  0
 11 47  1  0  0  0  0
 11 48  1  0  0  0  0
 12 13  1  0  0  0  0
 12 49  1  0  0  0  0
 12 50  1  0  0  0  0
 13 14  1  0  0  0  0
 13 51  1  0  0  0  0
 14 15  1  0  0  0  0
 14 52  1  0  0  0  0
 14 53  1  0  0  0  0
 15 16  2  0  0  0  0
 15 17  1  0  0  0  0
 17 18  2  3  0  0  0
 17 54  1  0  0  0  0
 18 19  1  0  0  0  0
 18 55  1  0  0  0  0
 19 20  1  0  0  0  0
 19 27  2  3  0  0  0
 20 21  1  0  0  0  0
 20 26  1  0  0  0  0
 20 56  1  0  0  0  0
 21 22  1  0  0  0  0
 21 57  1  0  0  0  0
 21 58  1  0  0  0  0
 22 23  1  0  0  0  0
 22 59  1  0  0  0  0
 22 60  1  0  0  0  0
 23 24  1  0  0  0  0
 23 61  1  0  0  0  0
 23 62  1  0  0  0  0
 24 25  1  0  0  0  0
 24 63  1  0  0  0  0
 24 64  1  0  0  0  0
 25 26  1  0  0  0  0
 25 65  1  0  0  0  0
 25 66  1  0  0  0  0
 26 67  1  0  0  0  0
 26 68  1  0  0  0  0
 27 69  1  0  0  0  0
M  END
$$$$
