
 OpenBabel04232216593D

 62 62  0  0  0  0  0  0  0  0999 V2000
   15.7141    4.2430   -4.5307 O   0  0  0  0  0  0  0  0  0  0  0  0
   15.2549    4.7263   -5.5966 C   0  0  0  0  0  0  0  0  0  0  0  0
   13.3070    4.0385   -5.0462 C   0  0  0  0  0  0  0  0  0  0  0  0
   11.5499    3.4567   -4.6369 C   0  0  0  0  0  0  0  0  0  0  0  0
    9.8749    2.8370   -3.6703 C   0  0  0  0  0  0  0  0  0  0  0  0
    8.8316    2.9547   -2.4052 C   0  0  0  0  0  0  0  0  0  0  0  0
    7.7845    4.1760   -2.5161 C   0  0  0  0  0  0  0  0  0  0  0  0
    8.6893    5.1302   -2.5218 C   0  0  0  0  0  0  0  0  0  0  0  0
    9.2756    5.6976   -3.6922 C   0  0  0  0  0  0  0  0  0  0  0  0
   10.6093    5.7031   -3.5014 C   0  0  0  0  0  0  0  0  0  0  0  0
   11.6798    6.3150   -4.1274 C   0  0  0  0  0  0  0  0  0  0  0  0
   12.9550    6.2281   -3.7179 C   0  0  0  0  0  0  0  0  0  0  0  0
   13.7723    7.0006   -4.5490 C   0  0  0  0  0  0  0  0  0  0  0  0
   15.0689    7.0989   -4.3698 C   0  0  0  0  0  0  0  0  0  0  0  0
   15.7107    7.9582   -5.2604 C   0  0  0  0  0  0  0  0  0  0  0  0
   17.0119    8.0581   -5.1529 C   0  0  0  0  0  0  0  0  0  0  0  0
   17.6010    8.9449   -6.0359 C   0  0  0  0  0  0  0  0  0  0  0  0
   18.8652    9.1556   -5.7702 C   0  0  0  0  0  0  0  0  0  0  0  0
   19.4223   10.0413   -6.6736 C   0  0  0  0  0  0  0  0  0  0  0  0
   20.7108   10.1879   -6.6288 C   0  0  0  0  0  0  0  0  0  0  0  0
   21.2701   10.9907   -7.6227 C   0  0  0  0  0  0  0  0  0  0  0  0
   22.5014   11.1190   -7.2187 C   0  0  0  0  0  0  0  0  0  0  0  0
   23.1783   12.2462   -7.6544 C   0  0  0  0  0  0  0  0  0  0  0  0
   24.4137   12.2919   -7.1993 C   0  0  0  0  0  0  0  0  0  0  0  0
   25.4823   12.8467   -7.9910 C   0  0  0  0  0  0  0  0  0  0  0  0
   26.1043   11.6451   -8.0880 C   0  0  0  0  0  0  0  0  0  0  0  0
   24.8897   10.6192   -8.9576 C   0  0  0  0  0  0  0  0  0  0  0  0
   24.1330    9.2406   -8.6024 C   0  0  0  0  0  0  0  0  0  0  0  0
   22.4877    8.0934   -8.2591 C   0  0  0  0  0  0  0  0  0  0  0  0
   20.7708    7.4787   -7.7808 C   0  0  0  0  0  0  0  0  0  0  0  0
   18.9139    6.5160   -6.9666 C   0  0  0  0  0  0  0  0  0  0  0  0
   17.1785    5.6477   -6.5123 C   0  0  0  0  0  0  0  0  0  0  0  0
   13.2667    3.7694   -3.8585 H   0  0  0  0  0  0  0  0  0  0  0  0
   11.3910    2.8601   -3.5109 H   0  0  0  0  0  0  0  0  0  0  0  0
    8.7546    2.3879   -4.0665 H   0  0  0  0  0  0  0  0  0  0  0  0
    7.9462    2.3312   -1.7834 H   0  0  0  0  0  0  0  0  0  0  0  0
    6.7724    4.2465   -2.9814 H   0  0  0  0  0  0  0  0  0  0  0  0
    9.5511    4.7152   -1.9906 H   0  0  0  0  0  0  0  0  0  0  0  0
    8.7602    5.3694   -4.6064 H   0  0  0  0  0  0  0  0  0  0  0  0
   11.0880    5.0715   -2.7405 H   0  0  0  0  0  0  0  0  0  0  0  0
   11.3617    6.8650   -4.9890 H   0  0  0  0  0  0  0  0  0  0  0  0
   13.4518    5.5800   -2.9687 H   0  0  0  0  0  0  0  0  0  0  0  0
   13.2692    7.4861   -5.3780 H   0  0  0  0  0  0  0  0  0  0  0  0
   15.6378    6.4887   -3.6690 H   0  0  0  0  0  0  0  0  0  0  0  0
   15.1743    8.4868   -6.0412 H   0  0  0  0  0  0  0  0  0  0  0  0
   17.6372    7.4197   -4.5192 H   0  0  0  0  0  0  0  0  0  0  0  0
   17.0899    9.4063   -6.8746 H   0  0  0  0  0  0  0  0  0  0  0  0
   19.3993    8.5535   -5.0273 H   0  0  0  0  0  0  0  0  0  0  0  0
   18.8915   10.4497   -7.5195 H   0  0  0  0  0  0  0  0  0  0  0  0
   21.3265    9.5617   -5.9654 H   0  0  0  0  0  0  0  0  0  0  0  0
   20.8443   11.6135   -8.4040 H   0  0  0  0  0  0  0  0  0  0  0  0
   22.9720   10.3291   -6.6094 H   0  0  0  0  0  0  0  0  0  0  0  0
   22.8599   12.6765   -8.5824 H   0  0  0  0  0  0  0  0  0  0  0  0
   24.6802   11.2813   -6.7379 H   0  0  0  0  0  0  0  0  0  0  0  0
   25.2239   13.3338   -8.9783 H   0  0  0  0  0  0  0  0  0  0  0  0
   27.2368   11.7139   -8.1338 H   0  0  0  0  0  0  0  0  0  0  0  0
   25.9311   11.1039   -9.6319 H   0  0  0  0  0  0  0  0  0  0  0  0
   25.1480    8.9596   -9.0467 H   0  0  0  0  0  0  0  0  0  0  0  0
   22.4132    9.1974   -8.6883 H   0  0  0  0  0  0  0  0  0  0  0  0
   20.5821    8.5453   -7.9034 H   0  0  0  0  0  0  0  0  0  0  0  0
   19.4390    6.9080   -6.1175 H   0  0  0  0  0  0  0  0  0  0  0  0
   17.1419    5.7728   -5.4302 H   0  0  0  0  0  0  0  0  0  0  0  0
  1  2  2  0  0  0  0
  2  3  1  0  0  0  0
  2 32  1  0  0  0  0
  3  4  2  3  0  0  0
  3 33  1  0  0  0  0
  4  5  1  0  0  0  0
  4 34  1  0  0  0  0
  5  6  2  3  0  0  0
  5 35  1  0  0  0  0
  6  7  1  0  0  0  0
  6 36  1  0  0  0  0
  7  8  2  3  0  0  0
  7 37  1  0  0  0  0
  8  9  1  0  0  0  0
  8 38  1  0  0  0  0
  9 10  2  3  0  0  0
  9 39  1  0  0  0  0
 10 11  1  0  0  0  0
 10 40  1  0  0  0  0
 11 12  2  3  0  0  0
 11 41  1  0  0  0  0
 12 13  1  0  0  0  0
 12 42  1  0  0  0  0
 13 14  2  3  0  0  0
 13 43  1  0  0  0  0
 14 15  1  0  0  0  0
 14 44  1  0  0  0  0
 15 16  2  3  0  0  0
 15 45  1  0  0  0  0
 16 17  1  0  0  0  0
 16 46  1  0  0  0  0
 17 18  2  3  0  0  0
 17 47  1  0  0  0  0
 18 19  1  0  0  0  0
 18 48  1  0  0  0  0
 19 20  2  3  0  0  0
 19 49  1  0  0  0  0
 20 21  1  0  0  0  0
 20 50  1  0  0  0  0
 21 22  2  3  0  0  0
 21 51  1  0  0  0  0
 22 23  1  0  0  0  0
 22 52  1  0  0  0  0
 23 24  2  3  0  0  0
 23 53  1  0  0  0  0
 24 25  1  0  0  0  0
 24 54  1  0  0  0  0
 25 26  2  3  0  0  0
 25 55  1  0  0  0  0
 26 27  1  0  0  0  0
 26 56  1  0  0  0  0
 27 28  2  3  0  0  0
 27 57  1  0  0  0  0
 28 29  1  0  0  0  0
 28 58  1  0  0  0  0
 29 30  2  3  0  0  0
 29 59  1  0  0  0  0
 30 31  1  0  0  0  0
 30 60  1  0  0  0  0
 31 32  2  3  0  0  0
 31 61  1  0  0  0  0
 32 62  1  0  0  0  0
M  END
$$$$
