
 OpenBabel04232217023D

184183  0  0  0  0  0  0  0  0999 V2000
   15.6022    0.9230   18.1836 S   0  0  0  0  0  0  0  0  0  0  0  0
   14.9980    2.4038   17.2849 C   0  0  0  0  0  0  0  0  0  0  0  0
   15.6814    3.6414   17.8612 C   0  0  0  0  0  0  0  0  0  0  0  0
   15.2131    4.9074   17.1467 C   0  0  0  0  0  0  0  0  0  0  0  0
   15.8928    6.1486   17.7204 C   0  0  0  0  0  0  0  0  0  0  0  0
   17.3425    6.0519   17.5566 N   0  0  0  0  0  0  0  0  0  0  0  0
   17.9489    7.2048   18.1003 N   0  0  0  0  0  0  0  0  0  0  0  0
   19.3568    7.0888   17.9437 N   0  0  0  0  0  0  0  0  0  0  0  0
   19.9820    8.2853   18.4970 C   0  0  0  0  0  0  0  0  0  0  0  0
   21.4936    8.1877   18.3416 C   0  0  0  0  0  0  0  0  0  0  0  0
   22.1668    9.4241   18.9157 C   0  0  0  0  0  0  0  0  0  0  0  0
   23.6728    9.3233   18.7616 C   0  0  0  0  0  0  0  0  0  0  0  0
   24.3422   10.5568   19.3365 C   0  0  0  0  0  0  0  0  0  0  0  0
   25.8480   10.4583   19.1814 C   0  0  0  0  0  0  0  0  0  0  0  0
   26.5045   11.6956   19.7631 C   0  0  0  0  0  0  0  0  0  0  0  0
   27.9308   11.5287   19.6222 N   0  0  0  0  0  0  0  0  0  0  0  0
   28.5837   12.7387   20.1381 N   0  0  0  0  0  0  0  0  0  0  0  0
   29.9823   12.6268   19.9928 N   0  0  0  0  0  0  0  0  0  0  0  0
   30.3441   12.5275   18.6349 N   0  0  0  0  0  0  0  0  0  0  0  0
   29.8551   13.6722   17.9140 N   0  0  0  0  0  0  0  0  0  0  0  0
   30.4765   14.8625   18.4419 N   0  0  0  0  0  0  0  0  0  0  0  0
   31.8949   14.7770   18.3308 N   0  0  0  0  0  0  0  0  0  0  0  0
   32.2526   14.6237   16.9550 N   0  0  0  0  0  0  0  0  0  0  0  0
   31.7533   15.7531   16.2179 N   0  0  0  0  0  0  0  0  0  0  0  0
   32.3498   16.9613   16.7362 N   0  0  0  0  0  0  0  0  0  0  0  0
   33.7712   16.8788   16.6575 N   0  0  0  0  0  0  0  0  0  0  0  0
   34.1294   16.7132   15.2909 N   0  0  0  0  0  0  0  0  0  0  0  0
   33.6602   17.8499   14.5290 N   0  0  0  0  0  0  0  0  0  0  0  0
   34.2178   19.0567   15.0560 N   0  0  0  0  0  0  0  0  0  0  0  0
   35.6356   18.9999   14.9707 N   0  0  0  0  0  0  0  0  0  0  0  0
   36.0580   18.8462   13.6061 N   0  0  0  0  0  0  0  0  0  0  0  0
   35.5481   19.9279   12.8406 N   0  0  0  0  0  0  0  0  0  0  0  0
   36.0993   21.1535   13.3496 N   0  0  0  0  0  0  0  0  0  0  0  0
   37.5250   21.1166   13.3080 N   0  0  0  0  0  0  0  0  0  0  0  0
   37.9529   20.9539   11.9676 N   0  0  0  0  0  0  0  0  0  0  0  0
   37.4612   22.0283   11.1641 N   0  0  0  0  0  0  0  0  0  0  0  0
   37.9629   23.2522   11.6859 N   0  0  0  0  0  0  0  0  0  0  0  0
   39.3981   23.2478   11.6505 N   0  0  0  0  0  0  0  0  0  0  0  0
   39.8661   23.0614   10.3236 N   0  0  0  0  0  0  0  0  0  0  0  0
   39.3963   24.1311    9.4956 N   0  0  0  0  0  0  0  0  0  0  0  0
   39.8723   25.3898    9.9976 N   0  0  0  0  0  0  0  0  0  0  0  0
   41.3066   25.3917   10.0150 N   0  0  0  0  0  0  0  0  0  0  0  0
   41.7972   25.1839    8.6898 N   0  0  0  0  0  0  0  0  0  0  0  0
   41.2890   26.2144    7.8491 N   0  0  0  0  0  0  0  0  0  0  0  0
   41.7392   27.4941    8.3649 N   0  0  0  0  0  0  0  0  0  0  0  0
   43.1748   27.4914    8.4033 N   0  0  0  0  0  0  0  0  0  0  0  0
   43.6914   27.2948    7.0663 N   0  0  0  0  0  0  0  0  0  0  0  0
   43.2110   28.3287    6.2145 N   0  0  0  0  0  0  0  0  0  0  0  0
   43.6468   29.6058    6.7139 N   0  0  0  0  0  0  0  0  0  0  0  0
   45.0817   29.6111    6.7730 N   0  0  0  0  0  0  0  0  0  0  0  0
   45.6200   29.4138    5.4419 N   0  0  0  0  0  0  0  0  0  0  0  0
   45.1299   30.4315    4.5587 N   0  0  0  0  0  0  0  0  0  0  0  0
   45.5705   31.7218    5.0398 N   0  0  0  0  0  0  0  0  0  0  0  0
   46.9994   31.7660    5.1243 N   0  0  0  0  0  0  0  0  0  0  0  0
   47.5679   31.5568    3.8151 N   0  0  0  0  0  0  0  0  0  0  0  0
   47.0692   32.5477    2.9118 N   0  0  0  0  0  0  0  0  0  0  0  0
   47.4638   33.8524    3.4032 N   0  0  0  0  0  0  0  0  0  0  0  0
   48.9055   33.8928    3.5195 N   0  0  0  0  0  0  0  0  0  0  0  0
   49.5017   33.6701    2.2052 N   0  0  0  0  0  0  0  0  0  0  0  0
   49.0307   34.6550    1.2854 N   0  0  0  0  0  0  0  0  0  0  0  0
   49.3979   35.9679    1.7510 N   0  0  0  0  0  0  0  0  0  0  0  0
   50.8304   36.0251    1.8695 N   0  0  0  0  0  0  0  0  0  0  0  0
   51.4221   35.7690    0.6024 N   0  0  0  0  0  0  0  0  0  0  0  0
   50.9878   36.7519   -0.3375 N   0  0  0  0  0  0  0  0  0  0  0  0
   51.3366   38.0436    0.1207 N   0  0  0  0  0  0  0  0  0  0  0  0
   52.7421   38.1274    0.2655 N   0  0  0  0  0  0  0  0  0  0  0  0
   53.3816   37.8666   -0.9857 N   0  0  0  0  0  0  0  0  0  0  0  0
   52.9305   38.8250   -1.9604 N   0  0  0  0  0  0  0  0  0  0  0  0
   53.2689   40.1442   -1.5188 N   0  0  0  0  0  0  0  0  0  0  0  0
   54.7058   40.2479   -1.3364 N   0  0  0  0  0  0  0  0  0  0  0  0
   55.3539   39.9751   -2.6343 C   0  0  0  0  0  0  0  0  0  0  0  0
   54.9154   40.9425   -3.6611 N   0  0  0  0  0  0  0  0  0  0  0  0
   55.2509   42.2793   -3.1823 C   0  0  0  0  0  0  0  0  0  0  0  0
   54.7828   43.2880   -4.2098 C   0  0  0  0  0  0  0  0  0  0  0  0
   55.1440   44.6933   -3.7623 C   0  0  0  0  0  0  0  0  0  0  0  0
   54.6806   45.7056   -4.7913 C   0  0  0  0  0  0  0  0  0  0  0  0
   55.0417   47.1075   -4.3433 C   0  0  0  0  0  0  0  0  0  0  0  0
   54.5779   48.1175   -5.3727 C   0  0  0  0  0  0  0  0  0  0  0  0
   54.9404   49.5187   -4.9261 C   0  0  0  0  0  0  0  0  0  0  0  0
   54.4751   50.5314   -5.9544 C   0  0  0  0  0  0  0  0  0  0  0  0
   54.8385   51.9275   -5.5053 C   0  0  0  0  0  0  0  0  0  0  0  0
   14.9402   -0.0857   17.5912 H   0  0  0  0  0  0  0  0  0  0  0  0
   13.9157    2.5123   17.4002 H   0  0  0  0  0  0  0  0  0  0  0  0
   15.2358    2.3350   16.2179 H   0  0  0  0  0  0  0  0  0  0  0  0
   16.7690    3.5561   17.7495 H   0  0  0  0  0  0  0  0  0  0  0  0
   15.4561    3.7392   18.9300 H   0  0  0  0  0  0  0  0  0  0  0  0
   14.1255    5.0058   17.2566 H   0  0  0  0  0  0  0  0  0  0  0  0
   15.4346    4.8284   16.0758 H   0  0  0  0  0  0  0  0  0  0  0  0
   15.6281    6.2317   18.7812 H   0  0  0  0  0  0  0  0  0  0  0  0
   15.5090    7.0319   17.1974 H   0  0  0  0  0  0  0  0  0  0  0  0
   17.5642    5.9674   16.5658 H   0  0  0  0  0  0  0  0  0  0  0  0
   17.7187    7.2673   19.0930 H   0  0  0  0  0  0  0  0  0  0  0  0
   19.5777    7.0195   16.9512 H   0  0  0  0  0  0  0  0  0  0  0  0
   19.7459    8.3843   19.5629 H   0  0  0  0  0  0  0  0  0  0  0  0
   19.6305    9.1849   17.9781 H   0  0  0  0  0  0  0  0  0  0  0  0
   21.7562    8.0952   17.2814 H   0  0  0  0  0  0  0  0  0  0  0  0
   21.8674    7.2994   18.8640 H   0  0  0  0  0  0  0  0  0  0  0  0
   21.9138    9.5241   19.9772 H   0  0  0  0  0  0  0  0  0  0  0  0
   21.8050   10.3177   18.3947 H   0  0  0  0  0  0  0  0  0  0  0  0
   23.9285    9.2267   17.7006 H   0  0  0  0  0  0  0  0  0  0  0  0
   24.0370    8.4307   19.2822 H   0  0  0  0  0  0  0  0  0  0  0  0
   24.0860   10.6521   20.3976 H   0  0  0  0  0  0  0  0  0  0  0  0
   23.9754   11.4489   18.8169 H   0  0  0  0  0  0  0  0  0  0  0  0
   26.0977   10.3586   18.1178 H   0  0  0  0  0  0  0  0  0  0  0  0
   26.2090    9.5611   19.6993 H   0  0  0  0  0  0  0  0  0  0  0  0
   26.2568   11.7795   20.8186 H   0  0  0  0  0  0  0  0  0  0  0  0
   26.1485   12.5830   19.2326 H   0  0  0  0  0  0  0  0  0  0  0  0
   28.1276   11.4654   18.6222 H   0  0  0  0  0  0  0  0  0  0  0  0
   28.3638   12.8276   21.1334 H   0  0  0  0  0  0  0  0  0  0  0  0
   30.3457   11.8203   20.4914 H   0  0  0  0  0  0  0  0  0  0  0  0
   29.9163   11.7060   18.2289 H   0  0  0  0  0  0  0  0  0  0  0  0
   28.8340   13.7148   18.0404 H   0  0  0  0  0  0  0  0  0  0  0  0
   30.2332   14.9510   19.4323 H   0  0  0  0  0  0  0  0  0  0  0  0
   32.2375   13.9627   18.8339 H   0  0  0  0  0  0  0  0  0  0  0  0
   31.8161   13.7645   16.6082 H   0  0  0  0  0  0  0  0  0  0  0  0
   30.7308   15.8041   16.3268 H   0  0  0  0  0  0  0  0  0  0  0  0
   32.0955   17.0588   17.7187 H   0  0  0  0  0  0  0  0  0  0  0  0
   34.0985   16.0759   17.2047 H   0  0  0  0  0  0  0  0  0  0  0  0
   33.7161   15.8509   14.9168 H   0  0  0  0  0  0  0  0  0  0  0  0
   32.6411   17.9255   14.6017 H   0  0  0  0  0  0  0  0  0  0  0  0
   33.9126   19.1682   16.0353 H   0  0  0  0  0  0  0  0  0  0  0  0
   35.9895   18.2078   15.4997 H   0  0  0  0  0  0  0  0  0  0  0  0
   35.6449   18.0007   13.2239 H   0  0  0  0  0  0  0  0  0  0  0  0
   34.5222   19.9296   12.9038 H   0  0  0  0  0  0  0  0  0  0  0  0
   35.8142   21.2716   14.3245 H   0  0  0  0  0  0  0  0  0  0  0  0
   37.8734   20.3377   13.8776 H   0  0  0  0  0  0  0  0  0  0  0  0
   37.5766   20.0914   11.5874 H   0  0  0  0  0  0  0  0  0  0  0  0
   36.4368   22.0154   11.2161 H   0  0  0  0  0  0  0  0  0  0  0  0
   37.6762   23.3668   12.6587 H   0  0  0  0  0  0  0  0  0  0  0  0
   39.7472   22.4701   12.2053 H   0  0  0  0  0  0  0  0  0  0  0  0
   39.5071   22.1847    9.9532 H   0  0  0  0  0  0  0  0  0  0  0  0
   38.3659   24.1032    9.5163 H   0  0  0  0  0  0  0  0  0  0  0  0
   39.5362   25.4996   10.9618 H   0  0  0  0  0  0  0  0  0  0  0  0
   41.6133   24.6218   10.6257 H   0  0  0  0  0  0  0  0  0  0  0  0
   41.4359   24.2955    8.3481 H   0  0  0  0  0  0  0  0  0  0  0  0
   40.2619   26.1626    7.8683 H   0  0  0  0  0  0  0  0  0  0  0  0
   41.3645   27.6020    9.3222 H   0  0  0  0  0  0  0  0  0  0  0  0
   43.5232   26.7340    8.9985 H   0  0  0  0  0  0  0  0  0  0  0  0
   43.3798   26.3911    6.7035 H   0  0  0  0  0  0  0  0  0  0  0  0
   42.1951   28.3444    6.1781 H   0  0  0  0  0  0  0  0  0  0  0  0
   43.2746   29.7465    7.6583 H   0  0  0  0  0  0  0  0  0  0  0  0
   45.4097   28.8658    7.4028 H   0  0  0  0  0  0  0  0  0  0  0  0
   45.3170   28.5066    5.0736 H   0  0  0  0  0  0  0  0  0  0  0  0
   44.1011   30.4110    4.5201 H   0  0  0  0  0  0  0  0  0  0  0  0
   45.1810   31.8803    5.9740 H   0  0  0  0  0  0  0  0  0  0  0  0
   47.3491   31.0328    5.7430 H   0  0  0  0  0  0  0  0  0  0  0  0
   47.2651   30.6407    3.4791 H   0  0  0  0  0  0  0  0  0  0  0  0
   46.0456   32.4849    2.8734 H   0  0  0  0  0  0  0  0  0  0  0  0
   47.0450   33.9761    4.3362 H   0  0  0  0  0  0  0  0  0  0  0  0
   49.2149   33.1565    4.1740 H   0  0  0  0  0  0  0  0  0  0  0  0
   49.2178   32.7519    1.8542 H   0  0  0  0  0  0  0  0  0  0  0  0
   48.0174   34.6213    1.2034 H   0  0  0  0  0  0  0  0  0  0  0  0
   48.9551   36.1229    2.6675 H   0  0  0  0  0  0  0  0  0  0  0  0
   51.1556   35.3149    2.5384 H   0  0  0  0  0  0  0  0  0  0  0  0
   51.1541   34.8514    0.2472 H   0  0  0  0  0  0  0  0  0  0  0  0
   49.9735   36.6993   -0.4258 H   0  0  0  0  0  0  0  0  0  0  0  0
   50.9084   38.2177    1.0269 H   0  0  0  0  0  0  0  0  0  0  0  0
   53.0503   37.4242    0.9318 H   0  0  0  0  0  0  0  0  0  0  0  0
   53.0852   36.9415   -1.2914 H   0  0  0  0  0  0  0  0  0  0  0  0
   51.9114   38.7386   -2.0166 H   0  0  0  0  0  0  0  0  0  0  0  0
   52.8070   40.2865   -0.6122 H   0  0  0  0  0  0  0  0  0  0  0  0
   54.9781   39.5327   -0.6559 H   0  0  0  0  0  0  0  0  0  0  0  0
   55.1037   38.9540   -2.9690 H   0  0  0  0  0  0  0  0  0  0  0  0
   56.4355   40.0085   -2.5157 H   0  0  0  0  0  0  0  0  0  0  0  0
   53.8942   40.8513   -3.7079 H   0  0  0  0  0  0  0  0  0  0  0  0
   56.3335   42.3617   -3.0593 H   0  0  0  0  0  0  0  0  0  0  0  0
   54.7736   42.5073   -2.2223 H   0  0  0  0  0  0  0  0  0  0  0  0
   53.6968   43.2171   -4.3391 H   0  0  0  0  0  0  0  0  0  0  0  0
   55.2563   43.0825   -5.1767 H   0  0  0  0  0  0  0  0  0  0  0  0
   56.2292   44.7734   -3.6327 H   0  0  0  0  0  0  0  0  0  0  0  0
   54.6702   44.9082   -2.7979 H   0  0  0  0  0  0  0  0  0  0  0  0
   53.5955   45.6291   -4.9212 H   0  0  0  0  0  0  0  0  0  0  0  0
   55.1548   45.4943   -5.7561 H   0  0  0  0  0  0  0  0  0  0  0  0
   56.1269   47.1852   -4.2136 H   0  0  0  0  0  0  0  0  0  0  0  0
   54.5676   47.3200   -3.3787 H   0  0  0  0  0  0  0  0  0  0  0  0
   53.4926   48.0411   -5.5012 H   0  0  0  0  0  0  0  0  0  0  0  0
   55.0510   47.9046   -6.3376 H   0  0  0  0  0  0  0  0  0  0  0  0
   56.0260   49.5953   -4.7981 H   0  0  0  0  0  0  0  0  0  0  0  0
   54.4690   49.7311   -3.9599 H   0  0  0  0  0  0  0  0  0  0  0  0
   53.3900   50.4579   -6.0810 H   0  0  0  0  0  0  0  0  0  0  0  0
   54.9477   50.3221   -6.9196 H   0  0  0  0  0  0  0  0  0  0  0  0
   54.3619   52.1527   -4.5466 H   0  0  0  0  0  0  0  0  0  0  0  0
   54.5044   52.6590   -6.2442 H   0  0  0  0  0  0  0  0  0  0  0  0
   55.9225   52.0167   -5.3867 H   0  0  0  0  0  0  0  0  0  0  0  0
  1  2  1  0  0  0  0
  1 82  1  0  0  0  0
  2  3  1  0  0  0  0
  2 83  1  0  0  0  0
  2 84  1  0  0  0  0
  3  4  1  0  0  0  0
  3 85  1  0  0  0  0
  3 86  1  0  0  0  0
  4  5  1  0  0  0  0
  4 87  1  0  0  0  0
  4 88  1  0  0  0  0
  5  6  1  0  0  0  0
  5 89  1  0  0  0  0
  5 90  1  0  0  0  0
  6  7  1  0  0  0  0
  6 91  1  0  0  0  0
  7  8  1  0  0  0  0
  7 92  1  0  0  0  0
  8  9  1  0  0  0  0
  8 93  1  0  0  0  0
  9 10  1  0  0  0  0
  9 94  1  0  0  0  0
  9 95  1  0  0  0  0
 10 11  1  0  0  0  0
 10 96  1  0  0  0  0
 10 97  1  0  0  0  0
 11 12  1  0  0  0  0
 11 98  1  0  0  0  0
 11 99  1  0  0  0  0
 12 13  1  0  0  0  0
 12100  1  0  0  0  0
 12101  1  0  0  0  0
 13 14  1  0  0  0  0
 13102  1  0  0  0  0
 13103  1  0  0  0  0
 14 15  1  0  0  0  0
 14104  1  0  0  0  0
 14105  1  0  0  0  0
 15 16  1  0  0  0  0
 15106  1  0  0  0  0
 15107  1  0  0  0  0
 16 17  1  0  0  0  0
 16108  1  0  0  0  0
 17 18  1  0  0  0  0
 17109  1  0  0  0  0
 18 19  1  0  0  0  0
 18110  1  0  0  0  0
 19 20  1  0  0  0  0
 19111  1  0  0  0  0
 20 21  1  0  0  0  0
 20112  1  0  0  0  0
 21 22  1  0  0  0  0
 21113  1  0  0  0  0
 22 23  1  0  0  0  0
 22114  1  0  0  0  0
 23 24  1  0  0  0  0
 23115  1  0  0  0  0
 24 25  1  0  0  0  0
 24116  1  0  0  0  0
 25 26  1  0  0  0  0
 25117  1  0  0  0  0
 26 27  1  0  0  0  0
 26118  1  0  0  0  0
 27 28  1  0  0  0  0
 27119  1  0  0  0  0
 28 29  1  0  0  0  0
 28120  1  0  0  0  0
 29 30  1  0  0  0  0
 29121  1  0  0  0  0
 30 31  1  0  0  0  0
 30122  1  0  0  0  0
 31 32  1  0  0  0  0
 31123  1  0  0  0  0
 32 33  1  0  0  0  0
 32124  1  0  0  0  0
 33 34  1  0  0  0  0
 33125  1  0  0  0  0
 34 35  1  0  0  0  0
 34126  1  0  0  0  0
 35 36  1  0  0  0  0
 35127  1  0  0  0  0
 36 37  1  0  0  0  0
 36128  1  0  0  0  0
 37 38  1  0  0  0  0
 37129  1  0  0  0  0
 38 39  1  0  0  0  0
 38130  1  0  0  0  0
 39 40  1  0  0  0  0
 39131  1  0  0  0  0
 40 41  1  0  0  0  0
 40132  1  0  0  0  0
 41 42  1  0  0  0  0
 41133  1  0  0  0  0
 42 43  1  0  0  0  0
 42134  1  0  0  0  0
 43 44  1  0  0  0  0
 43135  1  0  0  0  0
 44 45  1  0  0  0  0
 44136  1  0  0  0  0
 45 46  1  0  0  0  0
 45137  1  0  0  0  0
 46 47  1  0  0  0  0
 46138  1  0  0  0  0
 47 48  1  0  0  0  0
 47139  1  0  0  0  0
 48 49  1  0  0  0  0
 48140  1  0  0  0  0
 49 50  1  0  0  0  0
 49141  1  0  0  0  0
 50 51  1  0  0  0  0
 50142  1  0  0  0  0
 51 52  1  0  0  0  0
 51143  1  0  0  0  0
 52 53  1  0  0  0  0
 52144  1  0  0  0  0
 53 54  1  0  0  0  0
 53145  1  0  0  0  0
 54 55  1  0  0  0  0
 54146  1  0  0  0  0
 55 56  1  0  0  0  0
 55147  1  0  0  0  0
 56 57  1  0  0  0  0
 56148  1  0  0  0  0
 57 58  1  0  0  0  0
 57149  1  0  0  0  0
 58 59  1  0  0  0  0
 58150  1  0  0  0  0
 59 60  1  0  0  0  0
 59151  1  0  0  0  0
 60 61  1  0  0  0  0
 60152  1  0  0  0  0
 61 62  1  0  0  0  0
 61153  1  0  0  0  0
 62 63  1  0  0  0  0
 62154  1  0  0  0  0
 63 64  1  0  0  0  0
 63155  1  0  0  0  0
 64 65  1  0  0  0  0
 64156  1  0  0  0  0
 65 66  1  0  0  0  0
 65157  1  0  0  0  0
 66 67  1  0  0  0  0
 66158  1  0  0  0  0
 67 68  1  0  0  0  0
 67159  1  0  0  0  0
 68 69  1  0  0  0  0
 68160  1  0  0  0  0
 69 70  1  0  0  0  0
 69161  1  0  0  0  0
 70 71  1  0  0  0  0
 70162  1  0  0  0  0
 71 72  1  0  0  0  0
 71163  1  0  0  0  0
 71164  1  0  0  0  0
 72 73  1  0  0  0  0
 72165  1  0  0  0  0
 73 74  1  0  0  0  0
 73166  1  0  0  0  0
 73167  1  0  0  0  0
 74 75  1  0  0  0  0
 74168  1  0  0  0  0
 74169  1  0  0  0  0
 75 76  1  0  0  0  0
 75170  1  0  0  0  0
 75171  1  0  0  0  0
 76 77  1  0  0  0  0
 76172  1  0  0  0  0
 76173  1  0  0  0  0
 77 78  1  0  0  0  0
 77174  1  0  0  0  0
 77175  1  0  0  0  0
 78 79  1  0  0  0  0
 78176  1  0  0  0  0
 78177  1  0  0  0  0
 79 80  1  0  0  0  0
 79178  1  0  0  0  0
 79179  1  0  0  0  0
 80 81  1  0  0  0  0
 80180  1  0  0  0  0
 80181  1  0  0  0  0
 81182  1  0  0  0  0
 81183  1  0  0  0  0
 81184  1  0  0  0  0
M  END
$$$$
