
 OpenBabel04232216493D

 73 74  0  0  0  0  0  0  0  0999 V2000
    0.9947   -0.3794   -0.1765 C   0  0  0  0  0  0  0  0  0  0  0  0
    2.3652   -0.0040   -0.6815 C   0  0  0  0  0  0  0  0  0  0  0  0
    3.1633   -1.0552   -1.3463 C   0  0  0  0  0  0  0  0  0  0  0  0
    4.5052   -1.0890   -1.1940 C   0  0  0  0  0  0  0  0  0  0  0  0
    5.4784   -1.7612   -2.0686 C   0  0  0  0  0  0  0  0  0  0  0  0
    6.8379   -1.5612   -2.1526 C   0  0  0  0  0  0  0  0  0  0  0  0
    7.6262   -0.9176   -1.1809 N   0  0  0  0  0  0  0  0  0  0  0  0
    7.3175   -0.8401    0.2416 C   0  0  0  0  0  0  0  0  0  0  0  0
    8.5264   -0.6981    1.1720 C   0  0  0  0  0  0  0  0  0  0  0  0
    9.2725    0.5913    0.8601 C   0  0  0  0  0  0  0  0  0  0  0  0
   10.4698    0.8117    1.7691 C   0  0  0  0  0  0  0  0  0  0  0  0
   11.2106    2.1058    1.4209 C   0  0  0  0  0  0  0  0  0  0  0  0
   12.4063    2.2890    2.3536 C   0  0  0  0  0  0  0  0  0  0  0  0
   13.1836    3.5679    2.0519 C   0  0  0  0  0  0  0  0  0  0  0  0
   14.3717    3.7130    3.0030 C   0  0  0  0  0  0  0  0  0  0  0  0
   15.1592    4.9802    2.7188 C   0  0  0  0  0  0  0  0  0  0  0  0
    7.5365   -1.9512   -3.4099 C   0  0  0  0  0  0  0  0  0  0  0  0
    8.7448   -2.6485   -3.5077 C   0  0  0  0  0  0  0  0  0  0  0  0
    9.6545   -3.1972   -2.4566 C   0  0  0  0  0  0  0  0  0  0  0  0
    9.0390   -2.8178   -4.8567 N   0  0  0  0  0  0  0  0  0  0  0  0
   10.1857   -3.5137   -5.4072 C   0  0  0  0  0  0  0  0  0  0  0  0
    8.0676   -2.2262   -5.6365 C   0  0  0  0  0  0  0  0  0  0  0  0
    8.0946   -2.2152   -7.1323 C   0  0  0  0  0  0  0  0  0  0  0  0
    7.1387   -1.6666   -4.7808 C   0  0  0  0  0  0  0  0  0  0  0  0
    5.9960   -0.9556   -5.2846 C   0  0  0  0  0  0  0  0  0  0  0  0
    5.4352    0.0612   -4.6179 C   0  0  0  0  0  0  0  0  0  0  0  0
    4.1351    0.6468   -4.8297 C   0  0  0  0  0  0  0  0  0  0  0  0
    3.5958    1.1715   -3.6996 C   0  0  0  0  0  0  0  0  0  0  0  0
    2.3098    1.7189   -3.4201 C   0  0  0  0  0  0  0  0  0  0  0  0
    1.9029    1.8603   -2.1398 C   0  0  0  0  0  0  0  0  0  0  0  0
    2.5962    1.3103   -0.9462 C   0  0  0  0  0  0  0  0  0  0  0  0
    0.4486   -0.9521   -0.9341 H   0  0  0  0  0  0  0  0  0  0  0  0
    0.3936    0.5160    0.0364 H   0  0  0  0  0  0  0  0  0  0  0  0
    1.0506   -0.9584    0.7471 H   0  0  0  0  0  0  0  0  0  0  0  0
    2.6414   -1.6871   -2.0622 H   0  0  0  0  0  0  0  0  0  0  0  0
    4.8944   -0.3923   -0.4646 H   0  0  0  0  0  0  0  0  0  0  0  0
    5.0106   -2.3207   -2.8768 H   0  0  0  0  0  0  0  0  0  0  0  0
    8.1136   -0.1110   -1.5787 H   0  0  0  0  0  0  0  0  0  0  0  0
    6.8075   -1.7654    0.5287 H   0  0  0  0  0  0  0  0  0  0  0  0
    6.6788    0.0278    0.4289 H   0  0  0  0  0  0  0  0  0  0  0  0
    9.1835   -1.5769    1.0903 H   0  0  0  0  0  0  0  0  0  0  0  0
    8.1646   -0.6883    2.2163 H   0  0  0  0  0  0  0  0  0  0  0  0
    8.5839    1.4385    0.9523 H   0  0  0  0  0  0  0  0  0  0  0  0
    9.6080    0.5612   -0.1786 H   0  0  0  0  0  0  0  0  0  0  0  0
   11.1569   -0.0382    1.6804 H   0  0  0  0  0  0  0  0  0  0  0  0
   10.1325    0.8557    2.8115 H   0  0  0  0  0  0  0  0  0  0  0  0
   10.5327    2.9638    1.5110 H   0  0  0  0  0  0  0  0  0  0  0  0
   11.5528    2.0748    0.3782 H   0  0  0  0  0  0  0  0  0  0  0  0
   13.0753    1.4252    2.2591 H   0  0  0  0  0  0  0  0  0  0  0  0
   12.0550    2.3129    3.3924 H   0  0  0  0  0  0  0  0  0  0  0  0
   12.5217    4.4367    2.1526 H   0  0  0  0  0  0  0  0  0  0  0  0
   13.5401    3.5494    1.0149 H   0  0  0  0  0  0  0  0  0  0  0  0
   15.0358    2.8459    2.9047 H   0  0  0  0  0  0  0  0  0  0  0  0
   14.0181    3.7332    4.0407 H   0  0  0  0  0  0  0  0  0  0  0  0
   15.5527    4.9746    1.6973 H   0  0  0  0  0  0  0  0  0  0  0  0
   16.0037    5.0647    3.4093 H   0  0  0  0  0  0  0  0  0  0  0  0
   14.5290    5.8670    2.8403 H   0  0  0  0  0  0  0  0  0  0  0  0
    9.3041   -2.9897   -1.4430 H   0  0  0  0  0  0  0  0  0  0  0  0
   10.6571   -2.7659   -2.5571 H   0  0  0  0  0  0  0  0  0  0  0  0
    9.7391   -4.2844   -2.5593 H   0  0  0  0  0  0  0  0  0  0  0  0
   10.8282   -3.9081   -4.6209 H   0  0  0  0  0  0  0  0  0  0  0  0
   10.7573   -2.8049   -6.0158 H   0  0  0  0  0  0  0  0  0  0  0  0
    9.8212   -4.3411   -6.0254 H   0  0  0  0  0  0  0  0  0  0  0  0
    8.9577   -2.7307   -7.5607 H   0  0  0  0  0  0  0  0  0  0  0  0
    8.1123   -1.1842   -7.5030 H   0  0  0  0  0  0  0  0  0  0  0  0
    7.1962   -2.7038   -7.5252 H   0  0  0  0  0  0  0  0  0  0  0  0
    5.5480   -1.3037   -6.2075 H   0  0  0  0  0  0  0  0  0  0  0  0
    5.9497    0.3905   -3.7174 H   0  0  0  0  0  0  0  0  0  0  0  0
    3.5962    0.5522   -5.7615 H   0  0  0  0  0  0  0  0  0  0  0  0
    4.2302    1.1374   -2.8221 H   0  0  0  0  0  0  0  0  0  0  0  0
    1.6755    2.0516   -4.2330 H   0  0  0  0  0  0  0  0  0  0  0  0
    0.9671    2.3731   -1.9276 H   0  0  0  0  0  0  0  0  0  0  0  0
    2.3742    2.0196   -0.1419 H   0  0  0  0  0  0  0  0  0  0  0  0
  1  2  1  0  0  0  0
  1 32  1  0  0  0  0
  1 33  1  0  0  0  0
  1 34  1  0  0  0  0
  2  3  1  0  0  0  0
  2 31  2  0  0  0  0
  3  4  2  0  0  0  0
  3 35  1  0  0  0  0
  4  5  1  0  0  0  0
  4 36  1  0  0  0  0
  5  6  2  0  0  0  0
  5 37  1  0  0  0  0
  6  7  1  0  0  0  0
  6 17  1  0  0  0  0
  7  8  1  0  0  0  0
  7 38  1  0  0  0  0
  8  9  1  0  0  0  0
  8 39  1  0  0  0  0
  8 40  1  0  0  0  0
  9 10  1  0  0  0  0
  9 41  1  0  0  0  0
  9 42  1  0  0  0  0
 10 11  1  0  0  0  0
 10 43  1  0  0  0  0
 10 44  1  0  0  0  0
 11 12  1  0  0  0  0
 11 45  1  0  0  0  0
 11 46  1  0  0  0  0
 12 13  1  0  0  0  0
 12 47  1  0  0  0  0
 12 48  1  0  0  0  0
 13 14  1  0  0  0  0
 13 49  1  0  0  0  0
 13 50  1  0  0  0  0
 14 15  1  0  0  0  0
 14 51  1  0  0  0  0
 14 52  1  0  0  0  0
 15 16  1  0  0  0  0
 15 53  1  0  0  0  0
 15 54  1  0  0  0  0
 16 55  1  0  0  0  0
 16 56  1  0  0  0  0
 16 57  1  0  0  0  0
 17 18  2  0  0  0  0
 17 24  1  0  0  0  0
 18 19  1  0  0  0  0
 18 20  1  0  0  0  0
 19 58  1  0  0  0  0
 19 59  1  0  0  0  0
 19 60  1  0  0  0  0
 20 21  1  0  0  0  0
 20 22  1  0  0  0  0
 21 61  1  0  0  0  0
 21 62  1  0  0  0  0
 21 63  1  0  0  0  0
 22 23  1  0  0  0  0
 22 24  2  0  0  0  0
 23 64  1  0  0  0  0
 23 65  1  0  0  0  0
 23 66  1  0  0  0  0
 24 25  1  0  0  0  0
 25 26  2  0  0  0  0
 25 67  1  0  0  0  0
 26 27  1  0  0  0  0
 26 68  1  0  0  0  0
 27 28  2  0  0  0  0
 27 69  1  0  0  0  0
 28 29  1  0  0  0  0
 28 70  1  0  0  0  0
 29 30  2  0  0  0  0
 29 71  1  0  0  0  0
 30 31  1  0  0  0  0
 30 72  1  0  0  0  0
 31 73  1  0  0  0  0
M  END
$$$$
