
 OpenBabel04232216523D

 61 62  0  0  0  0  0  0  0  0999 V2000
    3.5396   -0.4811    0.1700 C   0  0  0  0  0  0  0  0  0  0  0  0
    4.0509   -0.7367   -1.2880 C   0  0  0  0  0  0  0  0  0  0  0  0
    5.6011   -1.1911   -1.7816 C   0  0  0  0  0  0  0  0  0  0  0  0
    7.0369   -0.5726   -2.3310 C   0  0  0  0  0  0  0  0  0  0  0  0
    7.5929    0.6878   -2.1687 C   0  0  0  0  0  0  0  0  0  0  0  0
    8.9923    1.0965   -2.7100 C   0  0  0  0  0  0  0  0  0  0  0  0
   10.0464    0.3403   -3.4347 C   0  0  0  0  0  0  0  0  0  0  0  0
   11.5865    1.1243   -4.0061 C   0  0  0  0  0  0  0  0  0  0  0  0
   11.3409    2.4979   -3.6884 C   0  0  0  0  0  0  0  0  0  0  0  0
   11.4003    2.8947   -2.4092 C   0  0  0  0  0  0  0  0  0  0  0  0
   11.9601    4.1759   -2.1293 C   0  0  0  0  0  0  0  0  0  0  0  0
   13.3109    4.1026   -2.2295 C   0  0  0  0  0  0  0  0  0  0  0  0
   14.1340    2.9143   -1.6764 C   0  0  0  0  0  0  0  0  0  0  0  0
   14.1504    2.9321   -0.1562 C   0  0  0  0  0  0  0  0  0  0  0  0
   14.8383    1.7938    0.3474 O   0  0  0  0  0  0  0  0  0  0  0  0
   13.7470    4.7168   -3.4684 C   0  0  0  0  0  0  0  0  0  0  0  0
   14.9595    5.1488   -3.6890 C   0  0  0  0  0  0  0  0  0  0  0  0
   15.4339    5.5535   -4.9561 C   0  0  0  0  0  0  0  0  0  0  0  0
   16.7654    5.5909   -5.0590 C   0  0  0  0  0  0  0  0  0  0  0  0
   17.5127    5.5805   -6.3109 C   0  0  0  0  0  0  0  0  0  0  0  0
   18.3738    4.3416   -6.1380 C   0  0  0  0  0  0  0  0  0  0  0  0
   17.5571    2.9916   -6.4340 C   0  0  0  0  0  0  0  0  0  0  0  0
   16.4338    2.1543   -5.3330 C   0  0  0  0  0  0  0  0  0  0  0  0
   14.5402    1.9160   -5.0891 C   0  0  0  0  0  0  0  0  0  0  0  0
   13.0176    0.9517   -4.4845 C   0  0  0  0  0  0  0  0  0  0  0  0
    9.4494   -0.9286   -3.6030 C   0  0  0  0  0  0  0  0  0  0  0  0
    8.0061   -1.3535   -3.0717 C   0  0  0  0  0  0  0  0  0  0  0  0
    2.4349   -0.3480    0.1620 H   0  0  0  0  0  0  0  0  0  0  0  0
    3.9272    0.4307    0.6272 H   0  0  0  0  0  0  0  0  0  0  0  0
    3.6813   -1.3303    0.8521 H   0  0  0  0  0  0  0  0  0  0  0  0
    3.6174    0.0326   -1.9368 H   0  0  0  0  0  0  0  0  0  0  0  0
    3.4384   -1.6372   -1.5191 H   0  0  0  0  0  0  0  0  0  0  0  0
    5.2862   -1.7444   -2.6831 H   0  0  0  0  0  0  0  0  0  0  0  0
    5.8713   -1.9586   -1.0440 H   0  0  0  0  0  0  0  0  0  0  0  0
    7.0284    1.4594   -1.6406 H   0  0  0  0  0  0  0  0  0  0  0  0
    9.1560    2.1533   -2.5029 H   0  0  0  0  0  0  0  0  0  0  0  0
   11.1396    3.2071   -4.5308 H   0  0  0  0  0  0  0  0  0  0  0  0
   11.5195    2.1484   -1.6197 H   0  0  0  0  0  0  0  0  0  0  0  0
   11.4344    4.9929   -2.6442 H   0  0  0  0  0  0  0  0  0  0  0  0
   15.1600    2.8830   -2.0568 H   0  0  0  0  0  0  0  0  0  0  0  0
   13.7276    1.9384   -1.9876 H   0  0  0  0  0  0  0  0  0  0  0  0
   13.1387    2.9390    0.2696 H   0  0  0  0  0  0  0  0  0  0  0  0
   14.6705    3.8284    0.1824 H   0  0  0  0  0  0  0  0  0  0  0  0
   14.1692    1.1532    0.6242 H   0  0  0  0  0  0  0  0  0  0  0  0
   13.0624    4.6710   -4.3266 H   0  0  0  0  0  0  0  0  0  0  0  0
   15.6925    5.0071   -2.8796 H   0  0  0  0  0  0  0  0  0  0  0  0
   14.8055    5.5711   -5.8196 H   0  0  0  0  0  0  0  0  0  0  0  0
   17.3669    5.4539   -4.1501 H   0  0  0  0  0  0  0  0  0  0  0  0
   18.0846    6.5186   -6.3971 H   0  0  0  0  0  0  0  0  0  0  0  0
   16.8820    5.5022   -7.2019 H   0  0  0  0  0  0  0  0  0  0  0  0
   18.8531    4.3071   -5.1448 H   0  0  0  0  0  0  0  0  0  0  0  0
   19.2409    4.4857   -6.8128 H   0  0  0  0  0  0  0  0  0  0  0  0
   17.1969    3.0416   -7.4670 H   0  0  0  0  0  0  0  0  0  0  0  0
   18.4353    2.3088   -6.4967 H   0  0  0  0  0  0  0  0  0  0  0  0
   16.7931    1.1231   -5.5136 H   0  0  0  0  0  0  0  0  0  0  0  0
   16.8508    2.4608   -4.3638 H   0  0  0  0  0  0  0  0  0  0  0  0
   14.5944    1.2530   -5.9702 H   0  0  0  0  0  0  0  0  0  0  0  0
   14.9413    1.5774   -4.1146 H   0  0  0  0  0  0  0  0  0  0  0  0
   13.3637   -0.0976   -4.4941 H   0  0  0  0  0  0  0  0  0  0  0  0
    9.9675   -1.7016   -4.1695 H   0  0  0  0  0  0  0  0  0  0  0  0
    7.7060   -2.3771   -3.3275 H   0  0  0  0  0  0  0  0  0  0  0  0
  1  2  1  0  0  0  0
  1 28  1  0  0  0  0
  1 29  1  0  0  0  0
  1 30  1  0  0  0  0
  2  3  1  0  0  0  0
  2 31  1  0  0  0  0
  2 32  1  0  0  0  0
  3  4  1  0  0  0  0
  3 33  1  0  0  0  0
  3 34  1  0  0  0  0
  4  5  1  0  0  0  0
  4 27  2  0  0  0  0
  5  6  2  0  0  0  0
  5 35  1  0  0  0  0
  6  7  1  0  0  0  0
  6 36  1  0  0  0  0
  7  8  1  0  0  0  0
  7 26  2  0  0  0  0
  8  9  1  0  0  0  0
  8 25  2  3  0  0  0
  9 10  2  3  0  0  0
  9 37  1  0  0  0  0
 10 11  1  0  0  0  0
 10 38  1  0  0  0  0
 11 12  2  3  0  0  0
 11 39  1  0  0  0  0
 12 13  1  0  0  0  0
 12 16  1  0  0  0  0
 13 14  1  0  0  0  0
 13 40  1  0  0  0  0
 13 41  1  0  0  0  0
 14 15  1  0  0  0  0
 14 42  1  0  0  0  0
 14 43  1  0  0  0  0
 15 44  1  0  0  0  0
 16 17  2  3  0  0  0
 16 45  1  0  0  0  0
 17 18  1  0  0  0  0
 17 46  1  0  0  0  0
 18 19  2  3  0  0  0
 18 47  1  0  0  0  0
 19 20  1  0  0  0  0
 19 48  1  0  0  0  0
 20 21  1  0  0  0  0
 20 49  1  0  0  0  0
 20 50  1  0  0  0  0
 21 22  1  0  0  0  0
 21 51  1  0  0  0  0
 21 52  1  0  0  0  0
 22 23  1  0  0  0  0
 22 53  1  0  0  0  0
 22 54  1  0  0  0  0
 23 24  1  0  0  0  0
 23 55  1  0  0  0  0
 23 56  1  0  0  0  0
 24 25  1  0  0  0  0
 24 57  1  0  0  0  0
 24 58  1  0  0  0  0
 25 59  1  0  0  0  0
 26 27  1  0  0  0  0
 26 60  1  0  0  0  0
 27 61  1  0  0  0  0
M  END
$$$$
