
 OpenBabel04232216503D

 25 25  0  0  0  0  0  0  0  0999 V2000
    2.4355    1.7983   -1.3423 C   0  0  0  0  0  0  0  0  0  0  0  0
    3.1465    0.7229   -0.5897 C   0  0  0  0  0  0  0  0  0  0  0  0
    2.7174    0.2341    0.5374 N   0  0  0  0  0  0  0  0  0  0  0  0
    3.6477   -0.7124    0.8740 C   0  0  0  0  0  0  0  0  0  0  0  0
    4.6442   -0.8277   -0.0087 C   0  0  0  0  0  0  0  0  0  0  0  0
    5.8233   -1.7408    0.0252 C   0  0  0  0  0  0  0  0  0  0  0  0
    7.1678   -1.0047    0.0295 C   0  0  0  0  0  0  0  0  0  0  0  0
    7.3432   -0.1059    1.2545 C   0  0  0  0  0  0  0  0  0  0  0  0
    8.6878    0.6000    1.2311 C   0  0  0  0  0  0  0  0  0  0  0  0
    4.4300    0.1441   -1.1233 C   0  0  0  0  0  0  0  0  0  0  0  0
    1.5262    2.0986   -0.8157 H   0  0  0  0  0  0  0  0  0  0  0  0
    2.1732    1.4262   -2.3359 H   0  0  0  0  0  0  0  0  0  0  0  0
    3.0967    2.6621   -1.4468 H   0  0  0  0  0  0  0  0  0  0  0  0
    3.5317   -1.2813    1.7896 H   0  0  0  0  0  0  0  0  0  0  0  0
    5.7829   -2.3936   -0.8553 H   0  0  0  0  0  0  0  0  0  0  0  0
    5.7692   -2.3980    0.9023 H   0  0  0  0  0  0  0  0  0  0  0  0
    7.2729   -0.4075   -0.8854 H   0  0  0  0  0  0  0  0  0  0  0  0
    7.9749   -1.7477    0.0060 H   0  0  0  0  0  0  0  0  0  0  0  0
    7.2609   -0.7053    2.1683 H   0  0  0  0  0  0  0  0  0  0  0  0
    6.5523    0.6515    1.2894 H   0  0  0  0  0  0  0  0  0  0  0  0
    9.5094   -0.1229    1.2328 H   0  0  0  0  0  0  0  0  0  0  0  0
    8.7936    1.2412    2.1114 H   0  0  0  0  0  0  0  0  0  0  0  0
    8.7826    1.2277    0.3394 H   0  0  0  0  0  0  0  0  0  0  0  0
    4.2717   -0.3436   -2.0861 H   0  0  0  0  0  0  0  0  0  0  0  0
    5.2040    0.9120   -1.1747 H   0  0  0  0  0  0  0  0  0  0  0  0
  1  2  1  0  0  0  0
  1 11  1  0  0  0  0
  1 12  1  0  0  0  0
  1 13  1  0  0  0  0
  2  3  2  0  0  0  0
  2 10  1  0  0  0  0
  3  4  1  0  0  0  0
  4  5  2  0  0  0  0
  4 14  1  0  0  0  0
  5  6  1  0  0  0  0
  5 10  1  0  0  0  0
  6  7  1  0  0  0  0
  6 15  1  0  0  0  0
  6 16  1  0  0  0  0
  7  8  1  0  0  0  0
  7 17  1  0  0  0  0
  7 18  1  0  0  0  0
  8  9  1  0  0  0  0
  8 19  1  0  0  0  0
  8 20  1  0  0  0  0
  9 21  1  0  0  0  0
  9 22  1  0  0  0  0
  9 23  1  0  0  0  0
 10 24  1  0  0  0  0
 10 25  1  0  0  0  0
M  END
$$$$
