
 OpenBabel04232216523D

 58 61  0  0  1  0  0  0  0  0999 V2000
   10.7566   -2.9363   -4.0361 C   0  0  0  0  0  0  0  0  0  0  0  0
    9.2565   -3.0960   -3.8699 C   0  0  0  0  0  0  0  0  0  0  0  0
    8.9572   -4.0527   -2.7321 C   0  0  0  0  0  0  0  0  0  0  0  0
    7.4813   -4.1857   -2.4144 C   0  0  0  0  0  0  0  0  0  0  0  0
    6.5253   -4.9448   -3.3923 C   0  0  0  0  0  0  0  0  0  0  0  0
    5.6632   -5.6778   -2.5755 C   0  0  0  0  0  0  0  0  0  0  0  0
    4.3748   -5.3473   -2.4123 N   0  0  0  0  0  0  0  0  0  0  0  0
    3.9258   -4.3400   -3.1980 C   0  0  0  0  0  0  0  0  0  0  0  0
    2.5658   -5.0841   -4.0182 S   0  0  3  0  0  0  0  0  0  0  0  0
    1.5030   -3.8909   -4.6862 C   0  0  0  0  0  0  0  0  0  0  0  0
    0.8441   -4.2400   -6.0056 C   0  0  0  0  0  0  0  0  0  0  0  0
    0.3590   -5.6858   -6.2058 C   0  0  0  0  0  0  0  0  0  0  0  0
    1.3596   -6.7658   -6.7067 C   0  0  0  0  0  0  0  0  0  0  0  0
    2.6470   -6.2559   -7.4686 C   0  0  3  0  0  0  0  0  0  0  0  0
    2.0966   -5.5902   -8.7610 C   0  0  0  0  0  0  0  0  0  0  0  0
    3.0792   -5.0942   -9.8065 C   0  0  0  0  0  0  0  0  0  0  0  0
    2.3749   -4.5886  -11.0717 C   0  0  0  0  0  0  0  0  0  0  0  0
    3.4010   -4.0544  -12.0597 C   0  0  0  0  0  0  0  0  0  0  0  0
    3.2874   -5.9768   -5.1513 N   0  0  0  0  0  0  0  0  0  0  0  0
    3.5591   -5.6093   -6.3608 C   0  0  0  0  0  0  0  0  0  0  0  0
    4.8622   -5.1216   -6.6754 N   0  0  0  0  0  0  0  0  0  0  0  0
    5.2990   -5.2001   -7.9539 N   0  0  0  0  0  0  0  0  0  0  0  0
    6.5418   -4.7669   -8.0325 N   0  0  0  0  0  0  0  0  0  0  0  0
    6.9471   -4.4170   -6.7804 C   0  0  0  0  0  0  0  0  0  0  0  0
    5.9294   -4.5982   -5.8635 C   0  0  0  0  0  0  0  0  0  0  0  0
    4.6983   -3.5829   -4.0608 C   0  0  0  0  0  0  0  0  0  0  0  0
    5.8789   -4.2092   -4.4152 C   0  0  0  0  0  0  0  0  0  0  0  0
   10.9790   -2.2963   -4.8950 H   0  0  0  0  0  0  0  0  0  0  0  0
   11.2343   -3.9075   -4.1971 H   0  0  0  0  0  0  0  0  0  0  0  0
   11.2002   -2.4814   -3.1439 H   0  0  0  0  0  0  0  0  0  0  0  0
    8.8357   -3.4848   -4.7953 H   0  0  0  0  0  0  0  0  0  0  0  0
    8.7981   -2.1181   -3.6815 H   0  0  0  0  0  0  0  0  0  0  0  0
    9.4417   -3.6606   -1.8255 H   0  0  0  0  0  0  0  0  0  0  0  0
    9.3964   -5.0380   -2.9198 H   0  0  0  0  0  0  0  0  0  0  0  0
    7.0412   -3.2029   -2.1961 H   0  0  0  0  0  0  0  0  0  0  0  0
    7.4627   -4.7163   -1.4484 H   0  0  0  0  0  0  0  0  0  0  0  0
    6.0349   -6.3994   -1.8512 H   0  0  0  0  0  0  0  0  0  0  0  0
    1.9169   -5.8915   -3.1649 H   0  0  0  0  0  0  0  0  0  0  0  0
    2.0385   -2.9430   -4.7973 H   0  0  0  0  0  0  0  0  0  0  0  0
    0.7357   -3.7220   -3.9223 H   0  0  0  0  0  0  0  0  0  0  0  0
    1.5179   -3.9172   -6.7993 H   0  0  0  0  0  0  0  0  0  0  0  0
   -0.0286   -3.5800   -6.1088 H   0  0  0  0  0  0  0  0  0  0  0  0
   -0.4507   -5.6495   -6.9454 H   0  0  0  0  0  0  0  0  0  0  0  0
   -0.1114   -6.0426   -5.2798 H   0  0  0  0  0  0  0  0  0  0  0  0
    0.8103   -7.4613   -7.3557 H   0  0  0  0  0  0  0  0  0  0  0  0
    1.6426   -7.4023   -5.8567 H   0  0  0  0  0  0  0  0  0  0  0  0
    3.1986   -7.1531   -7.7835 H   0  0  0  0  0  0  0  0  0  0  0  0
    1.4014   -4.7764   -8.5480 H   0  0  0  0  0  0  0  0  0  0  0  0
    1.4720   -6.3500   -9.2573 H   0  0  0  0  0  0  0  0  0  0  0  0
    3.7680   -5.9013  -10.0778 H   0  0  0  0  0  0  0  0  0  0  0  0
    3.6410   -4.2540   -9.3954 H   0  0  0  0  0  0  0  0  0  0  0  0
    1.6708   -3.7876  -10.8154 H   0  0  0  0  0  0  0  0  0  0  0  0
    1.7945   -5.3913  -11.5419 H   0  0  0  0  0  0  0  0  0  0  0  0
    4.0061   -3.2652  -11.6010 H   0  0  0  0  0  0  0  0  0  0  0  0
    2.9092   -3.6359  -12.9424 H   0  0  0  0  0  0  0  0  0  0  0  0
    4.0746   -4.8527  -12.3873 H   0  0  0  0  0  0  0  0  0  0  0  0
    7.9379   -4.0210   -6.6312 H   0  0  0  0  0  0  0  0  0  0  0  0
    4.2021   -2.9530   -4.7952 H   0  0  0  0  0  0  0  0  0  0  0  0
  1  2  1  0  0  0  0
  1 28  1  0  0  0  0
  1 29  1  0  0  0  0
  1 30  1  0  0  0  0
  2  3  1  0  0  0  0
  2 31  1  0  0  0  0
  2 32  1  0  0  0  0
  3  4  1  0  0  0  0
  3 33  1  0  0  0  0
  3 34  1  0  0  0  0
  4  5  1  0  0  0  0
  4 35  1  0  0  0  0
  4 36  1  0  0  0  0
  5  6  1  0  0  0  0
  5 27  2  0  0  0  0
  6  7  2  0  0  0  0
  6 37  1  0  0  0  0
  7  8  1  0  0  0  0
  8  9  1  0  0  0  0
  8 26  2  0  0  0  0
  9 10  1  0  0  0  0
  9 19  1  0  0  0  0
  9 38  1  0  0  0  0
 10 11  1  0  0  0  0
 10 39  1  0  0  0  0
 10 40  1  0  0  0  0
 11 12  1  0  0  0  0
 11 41  1  0  0  0  0
 11 42  1  0  0  0  0
 12 13  1  0  0  0  0
 12 43  1  0  0  0  0
 12 44  1  0  0  0  0
 13 14  1  0  0  0  0
 13 45  1  0  0  0  0
 13 46  1  0  0  0  0
 14 15  1  0  0  0  0
 14 20  1  0  0  0  0
 14 47  1  0  0  0  0
 15 16  1  0  0  0  0
 15 48  1  0  0  0  0
 15 49  1  0  0  0  0
 16 17  1  0  0  0  0
 16 50  1  0  0  0  0
 16 51  1  0  0  0  0
 17 18  1  0  0  0  0
 17 52  1  0  0  0  0
 17 53  1  0  0  0  0
 18 54  1  0  0  0  0
 18 55  1  0  0  0  0
 18 56  1  0  0  0  0
 19 20  2  0  0  0  0
 20 21  1  0  0  0  0
 21 22  1  0  0  0  0
 21 25  1  0  0  0  0
 22 23  2  0  0  0  0
 23 24  1  0  0  0  0
 24 25  2  0  0  0  0
 24 57  1  0  0  0  0
 25 27  1  0  0  0  0
 26 27  1  0  0  0  0
 26 58  1  0  0  0  0
M  END
$$$$
