
 OpenBabel04232216473D

 66 67  0  0  1  0  0  0  0  0999 V2000
    4.8824    0.0990    3.3723 C   0  0  0  0  0  0  0  0  0  0  0  0
    4.3658    0.1060    1.9336 C   0  0  3  0  0  0  0  0  0  0  0  0
    4.5910   -1.2223    1.2346 C   0  0  0  0  0  0  0  0  0  0  0  0
    5.5886   -1.2401    0.0887 C   0  0  0  0  0  0  0  0  0  0  0  0
    5.9895    0.0849   -0.5604 C   0  0  3  0  0  0  0  0  0  0  0  0
    5.4713    0.2531   -2.0156 C   0  0  3  0  0  0  0  0  0  0  0  0
    3.9394    0.2729   -2.0893 C   0  0  0  0  0  0  0  0  0  0  0  0
    6.0234    1.5241   -2.7117 C   0  0  0  0  0  0  0  0  0  0  0  0
    7.5496    1.5657   -2.7676 C   0  0  0  0  0  0  0  0  0  0  0  0
    8.0652    2.8259   -3.4703 C   0  0  0  0  0  0  0  0  0  0  0  0
    9.5758    2.8338   -3.4945 C   0  0  0  0  0  0  0  0  0  0  0  0
   10.2594    1.8708   -3.1273 O   0  0  0  0  0  0  0  0  0  0  0  0
   10.2702    4.0369   -4.0187 C   0  0  3  0  0  3  0  0  0  0  0  0
    9.8463    5.3849   -3.5356 C   0  0  0  0  0  0  0  0  0  0  0  0
    9.0405    6.0267   -4.5626 N   0  0  0  0  0  0  0  0  0  0  0  0
    9.3241    7.4532   -4.7266 C   0  0  0  0  0  0  0  0  0  0  0  0
    9.1596    7.8109   -6.2036 C   0  0  0  0  0  0  0  0  0  0  0  0
    8.0572    7.7893   -6.7579 O   0  0  0  0  0  0  0  0  0  0  0  0
   10.4186    8.1877   -6.9681 C   0  0  0  0  0  0  0  0  0  0  0  0
   10.7185    7.2098   -8.1078 C   0  0  0  0  0  0  0  0  0  0  0  0
   12.1015    6.5481   -7.9860 C   0  0  0  0  0  0  0  0  0  0  0  0
   12.0719    5.0158   -8.1239 C   0  0  0  0  0  0  0  0  0  0  0  0
   12.6672    4.2936   -6.9050 C   0  0  0  0  0  0  0  0  0  0  0  0
   11.6198    3.5065   -6.0956 C   0  0  0  0  0  0  0  0  0  0  0  0
   11.6459    3.8621   -4.6033 C   0  0  0  0  0  0  0  0  0  0  0  0
    5.6757    1.2943    0.1861 N   0  0  0  0  0  0  0  0  0  0  0  0
    4.9640    1.2963    1.2463 C   0  0  0  0  0  0  0  0  0  0  0  0
    4.4768   -0.7470    3.9341 H   0  0  0  0  0  0  0  0  0  0  0  0
    4.5835    1.0167    3.8928 H   0  0  0  0  0  0  0  0  0  0  0  0
    5.9764    0.0476    3.4022 H   0  0  0  0  0  0  0  0  0  0  0  0
    3.2847    0.2928    1.9802 H   0  0  0  0  0  0  0  0  0  0  0  0
    3.6256   -1.5771    0.8558 H   0  0  0  0  0  0  0  0  0  0  0  0
    4.8949   -1.9881    1.9604 H   0  0  0  0  0  0  0  0  0  0  0  0
    5.2303   -1.9444   -0.6744 H   0  0  0  0  0  0  0  0  0  0  0  0
    6.5069   -1.7138    0.4631 H   0  0  0  0  0  0  0  0  0  0  0  0
    7.0825    0.0349   -0.6185 H   0  0  0  0  0  0  0  0  0  0  0  0
    5.8159   -0.6135   -2.5956 H   0  0  0  0  0  0  0  0  0  0  0  0
    3.5225    1.1362   -1.5595 H   0  0  0  0  0  0  0  0  0  0  0  0
    3.5026   -0.6333   -1.6601 H   0  0  0  0  0  0  0  0  0  0  0  0
    3.6077    0.3308   -3.1325 H   0  0  0  0  0  0  0  0  0  0  0  0
    5.6539    2.4232   -2.2005 H   0  0  0  0  0  0  0  0  0  0  0  0
    5.6309    1.5684   -3.7346 H   0  0  0  0  0  0  0  0  0  0  0  0
    7.9195    0.6724   -3.2887 H   0  0  0  0  0  0  0  0  0  0  0  0
    7.9735    1.5496   -1.7623 H   0  0  0  0  0  0  0  0  0  0  0  0
    7.6986    3.7057   -2.9294 H   0  0  0  0  0  0  0  0  0  0  0  0
    7.6983    2.8632   -4.5015 H   0  0  0  0  0  0  0  0  0  0  0  0
   10.7473    5.9635   -3.3067 H   0  0  0  0  0  0  0  0  0  0  0  0
    9.2959    5.3241   -2.5916 H   0  0  0  0  0  0  0  0  0  0  0  0
    8.0451    5.9206   -4.3512 H   0  0  0  0  0  0  0  0  0  0  0  0
   10.3392    7.7173   -4.4159 H   0  0  0  0  0  0  0  0  0  0  0  0
    8.6366    8.0714   -4.1399 H   0  0  0  0  0  0  0  0  0  0  0  0
   11.2558    8.2718   -6.2685 H   0  0  0  0  0  0  0  0  0  0  0  0
   10.2552    9.1964   -7.3643 H   0  0  0  0  0  0  0  0  0  0  0  0
   10.7075    7.7799   -9.0469 H   0  0  0  0  0  0  0  0  0  0  0  0
    9.9247    6.4619   -8.2022 H   0  0  0  0  0  0  0  0  0  0  0  0
   12.6061    6.8498   -7.0627 H   0  0  0  0  0  0  0  0  0  0  0  0
   12.7311    6.9408   -8.7970 H   0  0  0  0  0  0  0  0  0  0  0  0
   12.6821    4.7498   -8.9971 H   0  0  0  0  0  0  0  0  0  0  0  0
   11.0656    4.6487   -8.3538 H   0  0  0  0  0  0  0  0  0  0  0  0
   13.2208    4.9916   -6.2689 H   0  0  0  0  0  0  0  0  0  0  0  0
   13.4207    3.5806   -7.2654 H   0  0  0  0  0  0  0  0  0  0  0  0
   11.8532    2.4368   -6.1965 H   0  0  0  0  0  0  0  0  0  0  0  0
   10.6149    3.6287   -6.5163 H   0  0  0  0  0  0  0  0  0  0  0  0
   12.2205    4.7750   -4.4271 H   0  0  0  0  0  0  0  0  0  0  0  0
   12.1867    3.0756   -4.0639 H   0  0  0  0  0  0  0  0  0  0  0  0
    4.7590    2.2725    1.7139 H   0  0  0  0  0  0  0  0  0  0  0  0
  1  2  1  0  0  0  0
  1 28  1  0  0  0  0
  1 29  1  0  0  0  0
  1 30  1  0  0  0  0
  2  3  1  0  0  0  0
  2 27  1  0  0  0  0
  2 31  1  0  0  0  0
  3  4  1  0  0  0  0
  3 32  1  0  0  0  0
  3 33  1  0  0  0  0
  4  5  1  0  0  0  0
  4 34  1  0  0  0  0
  4 35  1  0  0  0  0
  5  6  1  0  0  0  0
  5 26  1  0  0  0  0
  5 36  1  0  0  0  0
  6  7  1  0  0  0  0
  6  8  1  0  0  0  0
  6 37  1  0  0  0  0
  7 38  1  0  0  0  0
  7 39  1  0  0  0  0
  7 40  1  0  0  0  0
  8  9  1  0  0  0  0
  8 41  1  0  0  0  0
  8 42  1  0  0  0  0
  9 10  1  0  0  0  0
  9 43  1  0  0  0  0
  9 44  1  0  0  0  0
 10 11  1  0  0  0  0
 10 45  1  0  0  0  0
 10 46  1  0  0  0  0
 11 12  2  0  0  0  0
 11 13  1  0  0  0  0
 13 14  1  0  0  0  0
 13 25  1  0  0  0  0
 14 15  1  0  0  0  0
 14 47  1  0  0  0  0
 14 48  1  0  0  0  0
 15 16  1  0  0  0  0
 15 49  1  0  0  0  0
 16 17  1  0  0  0  0
 16 50  1  0  0  0  0
 16 51  1  0  0  0  0
 17 18  2  0  0  0  0
 17 19  1  0  0  0  0
 19 20  1  0  0  0  0
 19 52  1  0  0  0  0
 19 53  1  0  0  0  0
 20 21  1  0  0  0  0
 20 54  1  0  0  0  0
 20 55  1  0  0  0  0
 21 22  1  0  0  0  0
 21 56  1  0  0  0  0
 21 57  1  0  0  0  0
 22 23  1  0  0  0  0
 22 58  1  0  0  0  0
 22 59  1  0  0  0  0
 23 24  1  0  0  0  0
 23 60  1  0  0  0  0
 23 61  1  0  0  0  0
 24 25  1  0  0  0  0
 24 62  1  0  0  0  0
 24 63  1  0  0  0  0
 25 64  1  0  0  0  0
 25 65  1  0  0  0  0
 26 27  2  0  0  0  0
 27 66  1  0  0  0  0
M  END
$$$$
