
 OpenBabel04232217023D

 95 94  0  0  0  0  0  0  0  0999 V2000
   17.3799    1.3452    6.5590 O   0  0  0  0  0  0  0  0  0  0  0  0
   16.8698    1.8645    8.0501 S   0  0  0  0  0  0  0  0  0  0  0  0
   17.7339    0.6597    9.1243 C   0  0  0  0  0  0  0  0  0  0  0  0
   17.4319    0.9519   10.5956 C   0  0  0  0  0  0  0  0  0  0  0  0
   18.0763    0.0387   11.5407 N   0  0  0  0  0  0  0  0  0  0  0  0
   19.4949    0.0713   11.4253 N   0  0  0  0  0  0  0  0  0  0  0  0
   20.2808   -0.9918   12.4074 S   0  0  0  0  0  0  0  0  0  0  0  0
   19.4437   -2.7814   11.8040 S   0  0  0  0  0  0  0  0  0  0  0  0
   19.9805   -3.0277   10.0845 C   0  0  0  0  0  0  0  0  0  0  0  0
   19.3487   -4.6175    9.4156 S   0  0  0  0  0  0  0  0  0  0  0  0
   17.5277   -4.4889    9.5766 C   0  0  0  0  0  0  0  0  0  0  0  0
   16.7279   -6.0433    8.9425 S   0  0  0  0  0  0  0  0  0  0  0  0
   17.4379   -7.3587   10.0021 C   0  0  0  0  0  0  0  0  0  0  0  0
   16.8251   -9.0379    9.5010 S   0  0  0  0  0  0  0  0  0  0  0  0
   17.4378   -9.3477    7.5520 S   0  0  0  0  0  0  0  0  0  0  0  0
   19.5052   -9.3495    7.5401 S   0  0  0  0  0  0  0  0  0  0  0  0
   20.1856  -10.9174    8.7141 S   0  0  0  0  0  0  0  0  0  0  0  0
   22.2825  -10.8708    8.7050 S   0  0  0  0  0  0  0  0  0  0  0  0
   22.9734  -12.4259    9.9410 S   0  0  0  0  0  0  0  0  0  0  0  0
   25.0792  -12.4120    9.9295 S   0  0  0  0  0  0  0  0  0  0  0  0
   25.7683  -13.9712   11.1695 S   0  0  0  0  0  0  0  0  0  0  0  0
   27.8765  -13.9604   11.1609 S   0  0  0  0  0  0  0  0  0  0  0  0
   28.5663  -15.5202   12.4013 S   0  0  0  0  0  0  0  0  0  0  0  0
   30.6754  -15.5097   12.3930 S   0  0  0  0  0  0  0  0  0  0  0  0
   31.3659  -17.0697   13.6334 S   0  0  0  0  0  0  0  0  0  0  0  0
   33.4752  -17.0593   13.6252 S   0  0  0  0  0  0  0  0  0  0  0  0
   34.1658  -18.6193   14.8657 S   0  0  0  0  0  0  0  0  0  0  0  0
   36.2751  -18.6089   14.8575 S   0  0  0  0  0  0  0  0  0  0  0  0
   36.9657  -20.1689   16.0980 S   0  0  0  0  0  0  0  0  0  0  0  0
   39.0751  -20.1585   16.0898 S   0  0  0  0  0  0  0  0  0  0  0  0
   39.7657  -21.7186   17.3303 S   0  0  0  0  0  0  0  0  0  0  0  0
   41.8751  -21.7082   17.3221 S   0  0  0  0  0  0  0  0  0  0  0  0
   42.5657  -23.2682   18.5626 S   0  0  0  0  0  0  0  0  0  0  0  0
   44.6751  -23.2578   18.5544 S   0  0  0  0  0  0  0  0  0  0  0  0
   45.3657  -24.8179   19.7949 S   0  0  0  0  0  0  0  0  0  0  0  0
   47.4751  -24.8075   19.7867 S   0  0  0  0  0  0  0  0  0  0  0  0
   48.1657  -26.3675   21.0272 S   0  0  0  0  0  0  0  0  0  0  0  0
   50.2751  -26.3572   21.0190 S   0  0  0  0  0  0  0  0  0  0  0  0
   50.9657  -27.9172   22.2595 S   0  0  0  0  0  0  0  0  0  0  0  0
   53.0751  -27.9068   22.2513 S   0  0  0  0  0  0  0  0  0  0  0  0
   53.7657  -29.4668   23.4918 S   0  0  0  0  0  0  0  0  0  0  0  0
   55.8751  -29.4565   23.4836 S   0  0  0  0  0  0  0  0  0  0  0  0
   56.5657  -31.0165   24.7242 S   0  0  0  0  0  0  0  0  0  0  0  0
   58.6751  -31.0061   24.7159 S   0  0  0  0  0  0  0  0  0  0  0  0
   59.3657  -32.5662   25.9565 S   0  0  0  0  0  0  0  0  0  0  0  0
   61.4750  -32.5558   25.9482 S   0  0  0  0  0  0  0  0  0  0  0  0
   62.1657  -34.1158   27.1888 S   0  0  0  0  0  0  0  0  0  0  0  0
   64.2750  -34.1054   27.1805 S   0  0  0  0  0  0  0  0  0  0  0  0
   64.9657  -35.6655   28.4211 S   0  0  0  0  0  0  0  0  0  0  0  0
   67.0750  -35.6551   28.4128 S   0  0  0  0  0  0  0  0  0  0  0  0
   67.7657  -37.2151   29.6534 S   0  0  0  0  0  0  0  0  0  0  0  0
   69.8750  -37.2047   29.6451 S   0  0  0  0  0  0  0  0  0  0  0  0
   70.5656  -38.7648   30.8857 S   0  0  0  0  0  0  0  0  0  0  0  0
   72.6750  -38.7544   30.8774 S   0  0  0  0  0  0  0  0  0  0  0  0
   73.3656  -40.3144   32.1180 S   0  0  0  0  0  0  0  0  0  0  0  0
   75.4750  -40.3041   32.1097 S   0  0  0  0  0  0  0  0  0  0  0  0
   76.1656  -41.8641   33.3503 S   0  0  0  0  0  0  0  0  0  0  0  0
   78.2750  -41.8537   33.3421 S   0  0  0  0  0  0  0  0  0  0  0  0
   78.9656  -43.4137   34.5826 S   0  0  0  0  0  0  0  0  0  0  0  0
   81.0750  -43.4034   34.5744 S   0  0  0  0  0  0  0  0  0  0  0  0
   81.7656  -44.9634   35.8149 S   0  0  0  0  0  0  0  0  0  0  0  0
   83.8750  -44.9530   35.8067 S   0  0  0  0  0  0  0  0  0  0  0  0
   84.5656  -46.5130   37.0472 S   0  0  0  0  0  0  0  0  0  0  0  0
   86.6750  -46.5027   37.0390 S   0  0  0  0  0  0  0  0  0  0  0  0
   87.3656  -48.0627   38.2795 S   0  0  0  0  0  0  0  0  0  0  0  0
   89.4750  -48.0523   38.2713 S   0  0  0  0  0  0  0  0  0  0  0  0
   90.1656  -49.6124   39.5118 S   0  0  0  0  0  0  0  0  0  0  0  0
   92.2749  -49.6020   39.5036 S   0  0  0  0  0  0  0  0  0  0  0  0
   92.9655  -51.1620   40.7441 S   0  0  0  0  0  0  0  0  0  0  0  0
   95.0748  -51.1515   40.7358 S   0  0  0  0  0  0  0  0  0  0  0  0
   95.7651  -52.7114   41.9763 S   0  0  0  0  0  0  0  0  0  0  0  0
   97.8739  -52.7008   41.9678 S   0  0  0  0  0  0  0  0  0  0  0  0
   98.5633  -54.2602   43.2079 S   0  0  0  0  0  0  0  0  0  0  0  0
  100.6704  -54.2485   43.1985 S   0  0  0  0  0  0  0  0  0  0  0  0
  101.3571  -55.8062   44.4372 S   0  0  0  0  0  0  0  0  0  0  0  0
  103.4591  -55.7902   44.4250 S   0  0  0  0  0  0  0  0  0  0  0  0
  104.1369  -57.3436   45.6599 S   0  0  0  0  0  0  0  0  0  0  0  0
  106.2241  -57.3294   45.6208 S   0  0  0  0  0  0  0  0  0  0  0  0
  106.8902  -58.8301   46.8942 S   0  0  0  0  0  0  0  0  0  0  0  0
  108.9623  -58.8234   46.8240 S   0  0  0  0  0  0  0  0  0  0  0  0
  109.5519  -57.0154   47.6073 S   0  0  0  0  0  0  0  0  0  0  0  0
   16.9904    1.9114    5.8543 H   0  0  0  0  0  0  0  0  0  0  0  0
   18.8192    0.7348    8.9429 H   0  0  0  0  0  0  0  0  0  0  0  0
   17.4196   -0.3571    8.8631 H   0  0  0  0  0  0  0  0  0  0  0  0
   16.3427    0.8676   10.7560 H   0  0  0  0  0  0  0  0  0  0  0  0
   17.6898    1.9905   10.8511 H   0  0  0  0  0  0  0  0  0  0  0  0
   17.7977   -0.9276   11.2954 H   0  0  0  0  0  0  0  0  0  0  0  0
   19.8325    1.0619   11.6160 H   0  0  0  0  0  0  0  0  0  0  0  0
   21.0719   -3.0575   10.0108 H   0  0  0  0  0  0  0  0  0  0  0  0
   19.6164   -2.2167    9.4510 H   0  0  0  0  0  0  0  0  0  0  0  0
   17.1357   -3.6659    8.9655 H   0  0  0  0  0  0  0  0  0  0  0  0
   17.1955   -4.3368   10.6070 H   0  0  0  0  0  0  0  0  0  0  0  0
   17.1446   -7.2183   11.0515 H   0  0  0  0  0  0  0  0  0  0  0  0
   18.5252   -7.4098    9.9695 H   0  0  0  0  0  0  0  0  0  0  0  0
  110.8929  -57.1076   47.5323 H   0  0  0  0  0  0  0  0  0  0  0  0
  1  2  1  0  0  0  0
  1 82  1  0  0  0  0
  2  3  1  0  0  0  0
  3  4  1  0  0  0  0
  3 83  1  0  0  0  0
  3 84  1  0  0  0  0
  4  5  1  0  0  0  0
  4 85  1  0  0  0  0
  4 86  1  0  0  0  0
  5  6  1  0  0  0  0
  5 87  1  0  0  0  0
  6  7  1  0  0  0  0
  6 88  1  0  0  0  0
  7  8  1  0  0  0  0
  8  9  1  0  0  0  0
  9 10  1  0  0  0  0
  9 89  1  0  0  0  0
  9 90  1  0  0  0  0
 10 11  1  0  0  0  0
 11 12  1  0  0  0  0
 11 91  1  0  0  0  0
 11 92  1  0  0  0  0
 12 13  1  0  0  0  0
 13 14  1  0  0  0  0
 13 93  1  0  0  0  0
 13 94  1  0  0  0  0
 14 15  1  0  0  0  0
 15 16  1  0  0  0  0
 16 17  1  0  0  0  0
 17 18  1  0  0  0  0
 18 19  1  0  0  0  0
 19 20  1  0  0  0  0
 20 21  1  0  0  0  0
 21 22  1  0  0  0  0
 22 23  1  0  0  0  0
 23 24  1  0  0  0  0
 24 25  1  0  0  0  0
 25 26  1  0  0  0  0
 26 27  1  0  0  0  0
 27 28  1  0  0  0  0
 28 29  1  0  0  0  0
 29 30  1  0  0  0  0
 30 31  1  0  0  0  0
 31 32  1  0  0  0  0
 32 33  1  0  0  0  0
 33 34  1  0  0  0  0
 34 35  1  0  0  0  0
 35 36  1  0  0  0  0
 36 37  1  0  0  0  0
 37 38  1  0  0  0  0
 38 39  1  0  0  0  0
 39 40  1  0  0  0  0
 40 41  1  0  0  0  0
 41 42  1  0  0  0  0
 42 43  1  0  0  0  0
 43 44  1  0  0  0  0
 44 45  1  0  0  0  0
 45 46  1  0  0  0  0
 46 47  1  0  0  0  0
 47 48  1  0  0  0  0
 48 49  1  0  0  0  0
 49 50  1  0  0  0  0
 50 51  1  0  0  0  0
 51 52  1  0  0  0  0
 52 53  1  0  0  0  0
 53 54  1  0  0  0  0
 54 55  1  0  0  0  0
 55 56  1  0  0  0  0
 56 57  1  0  0  0  0
 57 58  1  0  0  0  0
 58 59  1  0  0  0  0
 59 60  1  0  0  0  0
 60 61  1  0  0  0  0
 61 62  1  0  0  0  0
 62 63  1  0  0  0  0
 63 64  1  0  0  0  0
 64 65  1  0  0  0  0
 65 66  1  0  0  0  0
 66 67  1  0  0  0  0
 67 68  1  0  0  0  0
 68 69  1  0  0  0  0
 69 70  1  0  0  0  0
 70 71  1  0  0  0  0
 71 72  1  0  0  0  0
 72 73  1  0  0  0  0
 73 74  1  0  0  0  0
 74 75  1  0  0  0  0
 75 76  1  0  0  0  0
 76 77  1  0  0  0  0
 77 78  1  0  0  0  0
 78 79  1  0  0  0  0
 79 80  1  0  0  0  0
 80 81  1  0  0  0  0
 81 95  1  0  0  0  0
M  END
$$$$
