
 OpenBabel04232216573D

 92 91  0  0  0  0  0  0  0  0999 V2000
    0.9532   -0.0493   -0.0677 C   0  0  0  0  0  0  0  0  0  0  0  0
    2.4051   -0.0545   -0.0764 N   0  0  0  0  0  0  0  0  0  0  0  0
    2.8973    0.3502    1.2353 C   0  0  0  0  0  0  0  0  0  0  0  0
    4.4080    0.3387    1.2114 C   0  0  0  0  0  0  0  0  0  0  0  0
    4.8557    0.7337    2.4895 O   0  0  0  0  0  0  0  0  0  0  0  0
    6.2500    0.7316    2.4948 C   0  0  0  0  0  0  0  0  0  0  0  0
    6.6027    1.1314    3.7812 O   0  0  0  0  0  0  0  0  0  0  0  0
    7.9939    1.1117    3.7248 O   0  0  0  0  0  0  0  0  0  0  0  0
    8.4632    1.5010    4.9772 O   0  0  0  0  0  0  0  0  0  0  0  0
    9.8467    1.4836    4.9205 O   0  0  0  0  0  0  0  0  0  0  0  0
   10.2723    1.8738    6.1759 O   0  0  0  0  0  0  0  0  0  0  0  0
   11.6295    1.8658    6.1501 O   0  0  0  0  0  0  0  0  0  0  0  0
   12.0361    2.2567    7.4079 O   0  0  0  0  0  0  0  0  0  0  0  0
   13.4033    2.2402    7.3545 O   0  0  0  0  0  0  0  0  0  0  0  0
   13.8090    2.6263    8.5969 O   0  0  0  0  0  0  0  0  0  0  0  0
   15.1702    2.6102    8.5450 O   0  0  0  0  0  0  0  0  0  0  0  0
   15.5729    2.9973    9.7904 O   0  0  0  0  0  0  0  0  0  0  0  0
   16.9367    2.9797    9.7336 O   0  0  0  0  0  0  0  0  0  0  0  0
   17.3359    3.3668   10.9792 O   0  0  0  0  0  0  0  0  0  0  0  0
   18.6983    3.3494   10.9231 O   0  0  0  0  0  0  0  0  0  0  0  0
   19.0967    3.7364   12.1682 O   0  0  0  0  0  0  0  0  0  0  0  0
   20.4587    3.7189   12.1118 O   0  0  0  0  0  0  0  0  0  0  0  0
   20.8569    4.1059   13.3568 O   0  0  0  0  0  0  0  0  0  0  0  0
   22.2188    4.0883   13.3003 O   0  0  0  0  0  0  0  0  0  0  0  0
   22.6170    4.4753   14.5453 O   0  0  0  0  0  0  0  0  0  0  0  0
   23.9788    4.4577   14.4888 O   0  0  0  0  0  0  0  0  0  0  0  0
   24.3770    4.8447   15.7337 O   0  0  0  0  0  0  0  0  0  0  0  0
   25.7388    4.8271   15.6772 O   0  0  0  0  0  0  0  0  0  0  0  0
   26.1370    5.2141   16.9221 O   0  0  0  0  0  0  0  0  0  0  0  0
   27.4988    5.1965   16.8656 O   0  0  0  0  0  0  0  0  0  0  0  0
   27.8970    5.5835   18.1105 O   0  0  0  0  0  0  0  0  0  0  0  0
   29.2588    5.5659   18.0540 O   0  0  0  0  0  0  0  0  0  0  0  0
   29.6570    5.9529   19.2990 O   0  0  0  0  0  0  0  0  0  0  0  0
   31.0188    5.9354   19.2424 O   0  0  0  0  0  0  0  0  0  0  0  0
   31.4170    6.3223   20.4874 O   0  0  0  0  0  0  0  0  0  0  0  0
   32.7788    6.3048   20.4309 O   0  0  0  0  0  0  0  0  0  0  0  0
   33.1770    6.6917   21.6758 O   0  0  0  0  0  0  0  0  0  0  0  0
   34.5388    6.6742   21.6193 O   0  0  0  0  0  0  0  0  0  0  0  0
   34.9370    7.0611   22.8642 O   0  0  0  0  0  0  0  0  0  0  0  0
   36.2988    7.0436   22.8077 O   0  0  0  0  0  0  0  0  0  0  0  0
   36.6970    7.4305   24.0526 O   0  0  0  0  0  0  0  0  0  0  0  0
   38.0588    7.4130   23.9961 O   0  0  0  0  0  0  0  0  0  0  0  0
   38.4570    7.7999   25.2411 O   0  0  0  0  0  0  0  0  0  0  0  0
   39.8188    7.7824   25.1845 O   0  0  0  0  0  0  0  0  0  0  0  0
   40.2169    8.1693   26.4295 O   0  0  0  0  0  0  0  0  0  0  0  0
   41.5788    8.1518   26.3730 O   0  0  0  0  0  0  0  0  0  0  0  0
   41.9769    8.5387   27.6179 O   0  0  0  0  0  0  0  0  0  0  0  0
   43.3388    8.5212   27.5614 O   0  0  0  0  0  0  0  0  0  0  0  0
   43.7369    8.9082   28.8063 O   0  0  0  0  0  0  0  0  0  0  0  0
   45.0988    8.8906   28.7498 O   0  0  0  0  0  0  0  0  0  0  0  0
   45.4969    9.2776   29.9948 O   0  0  0  0  0  0  0  0  0  0  0  0
   46.8588    9.2600   29.9382 O   0  0  0  0  0  0  0  0  0  0  0  0
   47.2569    9.6470   31.1832 O   0  0  0  0  0  0  0  0  0  0  0  0
   48.6188    9.6294   31.1267 O   0  0  0  0  0  0  0  0  0  0  0  0
   49.0169   10.0164   32.3716 O   0  0  0  0  0  0  0  0  0  0  0  0
   50.3788    9.9988   32.3151 O   0  0  0  0  0  0  0  0  0  0  0  0
   50.7859   10.3838   33.5537 O   0  0  0  0  0  0  0  0  0  0  0  0
   52.1387   10.3682   33.5035 O   0  0  0  0  0  0  0  0  0  0  0  0
   52.5347   10.7544   34.7461 O   0  0  0  0  0  0  0  0  0  0  0  0
   53.8990   10.7376   34.6918 O   0  0  0  0  0  0  0  0  0  0  0  0
   54.2941   11.1253   35.9393 O   0  0  0  0  0  0  0  0  0  0  0  0
   55.6518   11.1127   35.8986 O   0  0  0  0  0  0  0  0  0  0  0  0
   56.0568   11.4974   37.1364 O   0  0  0  0  0  0  0  0  0  0  0  0
   57.4162   11.4770   37.0705 O   0  0  0  0  0  0  0  0  0  0  0  0
   57.8158   11.8631   38.3128 O   0  0  0  0  0  0  0  0  0  0  0  0
   59.1795   11.8458   38.2573 O   0  0  0  0  0  0  0  0  0  0  0  0
   59.5746   12.2332   39.5036 O   0  0  0  0  0  0  0  0  0  0  0  0
   60.9382   12.2159   39.4479 O   0  0  0  0  0  0  0  0  0  0  0  0
   61.3357   12.6033   40.6940 O   0  0  0  0  0  0  0  0  0  0  0  0
   62.6977   12.5853   40.6361 O   0  0  0  0  0  0  0  0  0  0  0  0
   63.1043   12.9713   41.8781 O   0  0  0  0  0  0  0  0  0  0  0  0
   64.4645   12.9552   41.8262 O   0  0  0  0  0  0  0  0  0  0  0  0
   64.8680   13.3411   43.0678 O   0  0  0  0  0  0  0  0  0  0  0  0
   66.2392   13.3234   43.0108 O   0  0  0  0  0  0  0  0  0  0  0  0
   66.6504   13.7117   44.2599 O   0  0  0  0  0  0  0  0  0  0  0  0
   68.0399   13.6985   44.2186 O   0  0  0  0  0  0  0  0  0  0  0  0
   68.4542   14.0915   45.4856 O   0  0  0  0  0  0  0  0  0  0  0  0
   69.8406   14.0985   45.4543 O   0  0  0  0  0  0  0  0  0  0  0  0
   70.2819   14.5102   46.7342 O   0  0  0  0  0  0  0  0  0  0  0  0
   71.6955   14.4708   46.7332 O   0  0  0  0  0  0  0  0  0  0  0  0
   72.1221   13.1307   46.4165 O   0  0  0  0  0  0  0  0  0  0  0  0
    0.5833   -0.3542   -1.0488 H   0  0  0  0  0  0  0  0  0  0  0  0
    0.5658    0.9496    0.1543 H   0  0  0  0  0  0  0  0  0  0  0  0
    0.5693   -0.7571    0.6741 H   0  0  0  0  0  0  0  0  0  0  0  0
    2.7500    0.5999   -0.7785 H   0  0  0  0  0  0  0  0  0  0  0  0
    2.5441   -0.3293    2.0218 H   0  0  0  0  0  0  0  0  0  0  0  0
    2.5471    1.3558    1.5037 H   0  0  0  0  0  0  0  0  0  0  0  0
    4.7965    1.0446    0.4691 H   0  0  0  0  0  0  0  0  0  0  0  0
    4.7898   -0.6659    0.9992 H   0  0  0  0  0  0  0  0  0  0  0  0
    6.6651    1.4483    1.7743 H   0  0  0  0  0  0  0  0  0  0  0  0
    6.6602   -0.2696    2.3096 H   0  0  0  0  0  0  0  0  0  0  0  0
   73.0647   13.3500   46.4608 H   0  0  0  0  0  0  0  0  0  0  0  0
  1  2  1  0  0  0  0
  1 82  1  0  0  0  0
  1 83  1  0  0  0  0
  1 84  1  0  0  0  0
  2  3  1  0  0  0  0
  2 85  1  0  0  0  0
  3  4  1  0  0  0  0
  3 86  1  0  0  0  0
  3 87  1  0  0  0  0
  4  5  1  0  0  0  0
  4 88  1  0  0  0  0
  4 89  1  0  0  0  0
  5  6  1  0  0  0  0
  6  7  1  0  0  0  0
  6 90  1  0  0  0  0
  6 91  1  0  0  0  0
  7  8  1  0  0  0  0
  8  9  1  0  0  0  0
  9 10  1  0  0  0  0
 10 11  1  0  0  0  0
 11 12  1  0  0  0  0
 12 13  1  0  0  0  0
 13 14  1  0  0  0  0
 14 15  1  0  0  0  0
 15 16  1  0  0  0  0
 16 17  1  0  0  0  0
 17 18  1  0  0  0  0
 18 19  1  0  0  0  0
 19 20  1  0  0  0  0
 20 21  1  0  0  0  0
 21 22  1  0  0  0  0
 22 23  1  0  0  0  0
 23 24  1  0  0  0  0
 24 25  1  0  0  0  0
 25 26  1  0  0  0  0
 26 27  1  0  0  0  0
 27 28  1  0  0  0  0
 28 29  1  0  0  0  0
 29 30  1  0  0  0  0
 30 31  1  0  0  0  0
 31 32  1  0  0  0  0
 32 33  1  0  0  0  0
 33 34  1  0  0  0  0
 34 35  1  0  0  0  0
 35 36  1  0  0  0  0
 36 37  1  0  0  0  0
 37 38  1  0  0  0  0
 38 39  1  0  0  0  0
 39 40  1  0  0  0  0
 40 41  1  0  0  0  0
 41 42  1  0  0  0  0
 42 43  1  0  0  0  0
 43 44  1  0  0  0  0
 44 45  1  0  0  0  0
 45 46  1  0  0  0  0
 46 47  1  0  0  0  0
 47 48  1  0  0  0  0
 48 49  1  0  0  0  0
 49 50  1  0  0  0  0
 50 51  1  0  0  0  0
 51 52  1  0  0  0  0
 52 53  1  0  0  0  0
 53 54  1  0  0  0  0
 54 55  1  0  0  0  0
 55 56  1  0  0  0  0
 56 57  1  0  0  0  0
 57 58  1  0  0  0  0
 58 59  1  0  0  0  0
 59 60  1  0  0  0  0
 60 61  1  0  0  0  0
 61 62  1  0  0  0  0
 62 63  1  0  0  0  0
 63 64  1  0  0  0  0
 64 65  1  0  0  0  0
 65 66  1  0  0  0  0
 66 67  1  0  0  0  0
 67 68  1  0  0  0  0
 68 69  1  0  0  0  0
 69 70  1  0  0  0  0
 70 71  1  0  0  0  0
 71 72  1  0  0  0  0
 72 73  1  0  0  0  0
 73 74  1  0  0  0  0
 74 75  1  0  0  0  0
 75 76  1  0  0  0  0
 76 77  1  0  0  0  0
 77 78  1  0  0  0  0
 78 79  1  0  0  0  0
 79 80  1  0  0  0  0
 80 81  1  0  0  0  0
 81 92  1  0  0  0  0
M  END
$$$$
