
 OpenBabel04232216463D

 68 68  0  0  0  0  0  0  0  0999 V2000
    5.2069   -0.4060   -2.5931 C   0  0  0  0  0  0  0  0  0  0  0  0
    6.9332   -0.6243   -3.4897 C   0  0  0  0  0  0  0  0  0  0  0  0
    6.0719   -2.2376   -3.4048 C   0  0  0  0  0  0  0  0  0  0  0  0
    4.9943   -2.5613   -4.2559 C   0  0  0  0  0  0  0  0  0  0  0  0
    3.9247   -1.5224   -5.0789 C   0  0  0  0  0  0  0  0  0  0  0  0
    5.4972   -3.5203   -5.1305 N   0  0  0  0  0  0  0  0  0  0  0  0
    6.4583   -2.7652   -5.5326 C   0  0  0  0  0  0  0  0  0  0  0  0
    7.8486   -2.8210   -4.9833 C   0  0  0  0  0  0  0  0  0  0  0  0
    8.1685   -1.9339   -6.1081 C   0  0  0  0  0  0  0  0  0  0  0  0
    9.5449   -2.2651   -6.3167 C   0  0  0  0  0  0  0  0  0  0  0  0
    9.8072   -1.3462   -7.4729 C   0  0  0  0  0  0  0  0  0  0  0  0
   10.9728   -0.8200   -6.8101 C   0  0  0  0  0  0  0  0  0  0  0  0
   11.9358   -1.5319   -6.5492 O   0  0  0  0  0  0  0  0  0  0  0  0
   10.4399    0.4560   -6.1185 C   0  0  0  0  0  0  0  0  0  0  0  0
   10.1485    0.2024   -4.8278 C   0  0  0  0  0  0  0  0  0  0  0  0
   12.1471    0.9218   -5.2189 C   0  0  0  0  0  0  0  0  0  0  0  0
   13.7655    1.4632   -6.5525 C   0  0  0  0  0  0  0  0  0  0  0  0
   15.3583    2.5119   -7.0922 C   0  0  0  0  0  0  0  0  0  0  0  0
   17.3186    3.2234   -7.0754 C   0  0  0  0  0  0  0  0  0  0  0  0
   18.5342    4.3324   -7.9765 C   0  0  0  0  0  0  0  0  0  0  0  0
   19.4703    4.2447   -9.3848 C   0  0  0  0  0  0  0  0  0  0  0  0
   18.7468    4.3013  -10.7427 C   0  0  0  0  0  0  0  0  0  0  0  0
   17.9772    5.6017  -11.0200 C   0  0  0  0  0  0  0  0  0  0  0  0
   17.1626    5.5289  -12.3242 C   0  0  0  0  0  0  0  0  0  0  0  0
   16.3446    6.8032  -12.5566 C   0  0  0  0  0  0  0  0  0  0  0  0
   15.5209    6.7167  -13.8374 C   0  0  0  0  0  0  0  0  0  0  0  0
   14.7744    7.9127  -14.0214 O   0  0  0  0  0  0  0  0  0  0  0  0
    8.4597    0.2201   -3.9956 N   0  0  0  0  0  0  0  0  0  0  0  0
    4.9642   -1.1868   -1.7484 H   0  0  0  0  0  0  0  0  0  0  0  0
    4.3619   -1.0116   -3.0695 H   0  0  0  0  0  0  0  0  0  0  0  0
    4.3767    0.3735   -2.5465 H   0  0  0  0  0  0  0  0  0  0  0  0
    5.8549   -2.7514   -2.4425 H   0  0  0  0  0  0  0  0  0  0  0  0
    2.8796   -1.5816   -4.7233 H   0  0  0  0  0  0  0  0  0  0  0  0
    3.8821   -1.6079   -6.1746 H   0  0  0  0  0  0  0  0  0  0  0  0
    4.2107   -0.4714   -4.8977 H   0  0  0  0  0  0  0  0  0  0  0  0
    6.1519   -1.6809   -5.7668 H   0  0  0  0  0  0  0  0  0  0  0  0
    8.2750   -3.8077   -4.8963 H   0  0  0  0  0  0  0  0  0  0  0  0
    8.1675   -2.3342   -4.0229 H   0  0  0  0  0  0  0  0  0  0  0  0
    7.9343   -0.8599   -5.9251 H   0  0  0  0  0  0  0  0  0  0  0  0
    7.6359   -2.1473   -7.0463 H   0  0  0  0  0  0  0  0  0  0  0  0
    9.7552   -3.3142   -6.4862 H   0  0  0  0  0  0  0  0  0  0  0  0
   10.0120   -2.0725   -5.3208 H   0  0  0  0  0  0  0  0  0  0  0  0
    9.0517   -0.5277   -7.5593 H   0  0  0  0  0  0  0  0  0  0  0  0
    9.9422   -1.6842   -8.4845 H   0  0  0  0  0  0  0  0  0  0  0  0
   10.0281    1.0028   -6.9882 H   0  0  0  0  0  0  0  0  0  0  0  0
   12.6894   -0.0466   -5.0154 H   0  0  0  0  0  0  0  0  0  0  0  0
   12.3106    1.6954   -4.5997 H   0  0  0  0  0  0  0  0  0  0  0  0
   13.3167    1.4211   -7.5615 H   0  0  0  0  0  0  0  0  0  0  0  0
   14.3573    0.4701   -6.5957 H   0  0  0  0  0  0  0  0  0  0  0  0
   14.9796    3.4835   -7.6057 H   0  0  0  0  0  0  0  0  0  0  0  0
   15.6562    1.9584   -8.1305 H   0  0  0  0  0  0  0  0  0  0  0  0
   17.9676    2.3580   -6.9157 H   0  0  0  0  0  0  0  0  0  0  0  0
   17.2860    3.7898   -6.1397 H   0  0  0  0  0  0  0  0  0  0  0  0
   19.4181    4.3904   -7.2608 H   0  0  0  0  0  0  0  0  0  0  0  0
   18.2452    5.3984   -7.9323 H   0  0  0  0  0  0  0  0  0  0  0  0
   20.1548    3.3797   -9.3692 H   0  0  0  0  0  0  0  0  0  0  0  0
   20.2170    5.0864   -9.4281 H   0  0  0  0  0  0  0  0  0  0  0  0
   18.0794    3.4433  -10.7708 H   0  0  0  0  0  0  0  0  0  0  0  0
   19.4676    4.1665  -11.5715 H   0  0  0  0  0  0  0  0  0  0  0  0
   18.6672    6.4548  -11.0853 H   0  0  0  0  0  0  0  0  0  0  0  0
   17.2980    5.7926  -10.1855 H   0  0  0  0  0  0  0  0  0  0  0  0
   16.4829    4.6693  -12.2827 H   0  0  0  0  0  0  0  0  0  0  0  0
   17.8296    5.3687  -13.1813 H   0  0  0  0  0  0  0  0  0  0  0  0
   17.0042    7.6785  -12.6106 H   0  0  0  0  0  0  0  0  0  0  0  0
   15.6747    6.9840  -11.7067 H   0  0  0  0  0  0  0  0  0  0  0  0
   14.8221    5.8746  -13.8047 H   0  0  0  0  0  0  0  0  0  0  0  0
   16.1701    6.5900  -14.7092 H   0  0  0  0  0  0  0  0  0  0  0  0
   14.1815    8.0109  -13.2571 H   0  0  0  0  0  0  0  0  0  0  0  0
  1  2  1  0  0  0  0
  1 29  1  0  0  0  0
  1 30  1  0  0  0  0
  1 31  1  0  0  0  0
  2  3  1  0  0  0  0
  2 28  2  3  0  0  0
  3  4  2  3  0  0  0
  3 32  1  0  0  0  0
  4  5  1  0  0  0  0
  4  6  1  0  0  0  0
  5 33  1  0  0  0  0
  5 34  1  0  0  0  0
  5 35  1  0  0  0  0
  6  7  2  3  0  0  0
  7  8  1  0  0  0  0
  7 36  1  0  0  0  0
  8  9  1  0  0  0  0
  8 37  1  0  0  0  0
  8 38  1  0  0  0  0
  9 10  1  0  0  0  0
  9 39  1  0  0  0  0
  9 40  1  0  0  0  0
 10 11  1  0  0  0  0
 10 41  1  0  0  0  0
 10 42  1  0  0  0  0
 11 12  1  0  0  0  0
 11 43  1  0  0  0  0
 11 44  1  0  0  0  0
 12 13  2  0  0  0  0
 12 14  1  0  0  0  0
 14 15  2  3  0  0  0
 14 45  1  0  0  0  0
 15 16  1  0  0  0  0
 15 28  1  0  0  0  0
 16 17  1  0  0  0  0
 16 46  1  0  0  0  0
 16 47  1  0  0  0  0
 17 18  1  0  0  0  0
 17 48  1  0  0  0  0
 17 49  1  0  0  0  0
 18 19  1  0  0  0  0
 18 50  1  0  0  0  0
 18 51  1  0  0  0  0
 19 20  1  0  0  0  0
 19 52  1  0  0  0  0
 19 53  1  0  0  0  0
 20 21  1  0  0  0  0
 20 54  1  0  0  0  0
 20 55  1  0  0  0  0
 21 22  1  0  0  0  0
 21 56  1  0  0  0  0
 21 57  1  0  0  0  0
 22 23  1  0  0  0  0
 22 58  1  0  0  0  0
 22 59  1  0  0  0  0
 23 24  1  0  0  0  0
 23 60  1  0  0  0  0
 23 61  1  0  0  0  0
 24 25  1  0  0  0  0
 24 62  1  0  0  0  0
 24 63  1  0  0  0  0
 25 26  1  0  0  0  0
 25 64  1  0  0  0  0
 25 65  1  0  0  0  0
 26 27  1  0  0  0  0
 26 66  1  0  0  0  0
 26 67  1  0  0  0  0
 27 68  1  0  0  0  0
M  END
$$$$
