
 OpenBabel04232216493D

 47 49  0  0  0  0  0  0  0  0999 V2000
    6.9032    2.2575   -7.1435 C   0  0  0  0  0  0  0  0  0  0  0  0
    7.1381    2.5394   -5.6798 C   0  0  0  0  0  0  0  0  0  0  0  0
    6.7823    1.4213   -4.8071 C   0  0  0  0  0  0  0  0  0  0  0  0
    7.6641    0.7204   -4.0728 C   0  0  0  0  0  0  0  0  0  0  0  0
    9.0868    1.0099   -4.0311 C   0  0  0  0  0  0  0  0  0  0  0  0
    9.6149    2.1789   -3.6156 C   0  0  0  0  0  0  0  0  0  0  0  0
   11.0722    2.5091   -3.7723 C   0  0  0  0  0  0  0  0  0  0  0  0
    8.8043    3.2522   -3.0309 C   0  0  0  0  0  0  0  0  0  0  0  0
    8.9981    3.4270   -1.6598 N   0  0  0  0  0  0  0  0  0  0  0  0
    7.9776    3.9346   -0.7502 C   0  0  0  0  0  0  0  0  0  0  0  0
    8.1398    3.5498    0.7503 C   0  0  0  0  0  0  0  0  0  0  0  0
    7.7202    4.5297    1.5219 N   0  0  0  0  0  0  0  0  0  0  0  0
    7.7588    4.3361    2.8970 N   0  0  0  0  0  0  0  0  0  0  0  0
    7.0999    3.3371    3.2400 N   0  0  0  0  0  0  0  0  0  0  0  0
    8.0250    2.2387    3.5414 C   0  0  0  0  0  0  0  0  0  0  0  0
    9.0019    2.1016    2.4752 N   0  0  0  0  0  0  0  0  0  0  0  0
   10.2442    1.6353    2.7386 N   0  0  0  0  0  0  0  0  0  0  0  0
   10.8908    1.1986    1.7558 N   0  0  0  0  0  0  0  0  0  0  0  0
   10.1599    0.5991    0.7419 C   0  0  0  0  0  0  0  0  0  0  0  0
   10.4920   -0.4873    0.2701 O   0  0  0  0  0  0  0  0  0  0  0  0
    9.0060    1.2696    0.2866 N   0  0  0  0  0  0  0  0  0  0  0  0
    7.9549    0.4491   -0.2854 C   0  0  0  0  0  0  0  0  0  0  0  0
    8.5520    2.2551    1.1637 N   0  0  0  0  0  0  0  0  0  0  0  0
    7.9530    3.9510   -3.8084 C   0  0  0  0  0  0  0  0  0  0  0  0
    7.6834    3.6972   -5.2302 C   0  0  0  0  0  0  0  0  0  0  0  0
    8.0894    4.8040   -6.1688 C   0  0  0  0  0  0  0  0  0  0  0  0
    6.4472    1.2735   -7.3065 H   0  0  0  0  0  0  0  0  0  0  0  0
    7.8547    2.2590   -7.6883 H   0  0  0  0  0  0  0  0  0  0  0  0
    6.2356    3.0009   -7.5901 H   0  0  0  0  0  0  0  0  0  0  0  0
    5.7376    1.1214   -4.8243 H   0  0  0  0  0  0  0  0  0  0  0  0
    7.3270   -0.1400   -3.5062 H   0  0  0  0  0  0  0  0  0  0  0  0
    9.7286    0.2301   -4.4279 H   0  0  0  0  0  0  0  0  0  0  0  0
   11.6238    1.6973   -4.2603 H   0  0  0  0  0  0  0  0  0  0  0  0
   11.5418    2.7031   -2.8038 H   0  0  0  0  0  0  0  0  0  0  0  0
   11.1898    3.4022   -4.3989 H   0  0  0  0  0  0  0  0  0  0  0  0
    9.5528    2.6731   -1.2588 H   0  0  0  0  0  0  0  0  0  0  0  0
    6.9777    3.6036   -1.0538 H   0  0  0  0  0  0  0  0  0  0  0  0
    7.9977    5.0307   -0.8166 H   0  0  0  0  0  0  0  0  0  0  0  0
    7.4762    1.2940    3.6165 H   0  0  0  0  0  0  0  0  0  0  0  0
    8.5418    2.4208    4.4904 H   0  0  0  0  0  0  0  0  0  0  0  0
    7.3003    1.0609   -0.9083 H   0  0  0  0  0  0  0  0  0  0  0  0
    7.3764   -0.0048    0.5265 H   0  0  0  0  0  0  0  0  0  0  0  0
    8.3776   -0.3593   -0.8904 H   0  0  0  0  0  0  0  0  0  0  0  0
    7.3870    4.7844   -3.3851 H   0  0  0  0  0  0  0  0  0  0  0  0
    8.4373    5.6950   -5.6363 H   0  0  0  0  0  0  0  0  0  0  0  0
    7.2523    5.1109   -6.8048 H   0  0  0  0  0  0  0  0  0  0  0  0
    8.9115    4.4698   -6.8132 H   0  0  0  0  0  0  0  0  0  0  0  0
  1  2  1  0  0  0  0
  1 27  1  0  0  0  0
  1 28  1  0  0  0  0
  1 29  1  0  0  0  0
  2  3  1  0  0  0  0
  2 25  2  0  0  0  0
  3  4  2  0  0  0  0
  3 30  1  0  0  0  0
  4  5  1  0  0  0  0
  4 31  1  0  0  0  0
  5  6  2  0  0  0  0
  5 32  1  0  0  0  0
  6  7  1  0  0  0  0
  6  8  1  0  0  0  0
  7 33  1  0  0  0  0
  7 34  1  0  0  0  0
  7 35  1  0  0  0  0
  8  9  1  0  0  0  0
  8 24  2  0  0  0  0
  9 10  1  0  0  0  0
  9 36  1  0  0  0  0
 10 11  1  0  0  0  0
 10 37  1  0  0  0  0
 10 38  1  0  0  0  0
 11 12  2  0  0  0  0
 11 23  1  0  0  0  0
 12 13  1  0  0  0  0
 13 14  2  0  0  0  0
 14 15  1  0  0  0  0
 15 16  1  0  0  0  0
 15 39  1  0  0  0  0
 15 40  1  0  0  0  0
 16 17  1  0  0  0  0
 16 23  1  0  0  0  0
 17 18  2  0  0  0  0
 18 19  1  0  0  0  0
 19 20  2  0  0  0  0
 19 21  1  0  0  0  0
 21 22  1  0  0  0  0
 21 23  1  0  0  0  0
 22 41  1  0  0  0  0
 22 42  1  0  0  0  0
 22 43  1  0  0  0  0
 24 25  1  0  0  0  0
 24 44  1  0  0  0  0
 25 26  1  0  0  0  0
 26 45  1  0  0  0  0
 26 46  1  0  0  0  0
 26 47  1  0  0  0  0
M  END
$$$$
