
 OpenBabel04232216433D

 26 26  0  0  0  0  0  0  0  0999 V2000
    5.7774    1.8234    0.9408 C   0  0  0  0  0  0  0  0  0  0  0  0
    4.6283    1.1851    0.6161 C   0  0  0  0  0  0  0  0  0  0  0  0
    4.0747    0.0548    1.3291 C   0  0  0  0  0  0  0  0  0  0  0  0
    4.7996   -1.0370    1.6387 C   0  0  0  0  0  0  0  0  0  0  0  0
    4.8997   -1.3525    3.0615 C   0  0  0  0  0  0  0  0  0  0  0  0
    6.0439   -1.9289    3.4981 C   0  0  0  0  0  0  0  0  0  0  0  0
    6.8004   -1.2327    4.5352 C   0  0  0  0  0  0  0  0  0  0  0  0
    8.1339   -1.1047    4.3656 C   0  0  0  0  0  0  0  0  0  0  0  0
    8.6735    0.2379    4.5049 C   0  0  0  0  0  0  0  0  0  0  0  0
    9.2788    0.7496    3.4183 C   0  0  0  0  0  0  0  0  0  0  0  0
    8.9439    2.0787    2.9427 C   0  0  0  0  0  0  0  0  0  0  0  0
    7.8423    2.3436    2.2221 C   0  0  0  0  0  0  0  0  0  0  0  0
    6.7931    1.5285    1.8328 N   0  0  0  0  0  0  0  0  0  0  0  0
    5.9725    2.7648    0.4251 H   0  0  0  0  0  0  0  0  0  0  0  0
    3.9649    1.6537   -0.1017 H   0  0  0  0  0  0  0  0  0  0  0  0
    3.1710    0.2989    1.8923 H   0  0  0  0  0  0  0  0  0  0  0  0
    5.6760   -1.2762    1.0349 H   0  0  0  0  0  0  0  0  0  0  0  0
    4.3607   -0.6648    3.7166 H   0  0  0  0  0  0  0  0  0  0  0  0
    6.6313   -2.5212    2.8035 H   0  0  0  0  0  0  0  0  0  0  0  0
    6.2594   -0.4700    5.1025 H   0  0  0  0  0  0  0  0  0  0  0  0
    8.6594   -1.7631    3.6709 H   0  0  0  0  0  0  0  0  0  0  0  0
    8.1917    0.9032    5.2179 H   0  0  0  0  0  0  0  0  0  0  0  0
    9.7074    0.1087    2.6484 H   0  0  0  0  0  0  0  0  0  0  0  0
    9.6672    2.8644    3.1361 H   0  0  0  0  0  0  0  0  0  0  0  0
    7.7084    3.3566    1.8648 H   0  0  0  0  0  0  0  0  0  0  0  0
    6.7782    0.5910    2.2415 H   0  0  0  0  0  0  0  0  0  0  0  0
  1  2  2  0  0  0  0
  1 13  1  0  0  0  0
  1 14  1  0  0  0  0
  2  3  1  0  0  0  0
  2 15  1  0  0  0  0
  3  4  2  0  0  0  0
  3 16  1  0  0  0  0
  4  5  1  0  0  0  0
  4 17  1  0  0  0  0
  5  6  2  0  0  0  0
  5 18  1  0  0  0  0
  6  7  1  0  0  0  0
  6 19  1  0  0  0  0
  7  8  2  0  0  0  0
  7 20  1  0  0  0  0
  8  9  1  0  0  0  0
  8 21  1  0  0  0  0
  9 10  2  0  0  0  0
  9 22  1  0  0  0  0
 10 11  1  0  0  0  0
 10 23  1  0  0  0  0
 11 12  2  0  0  0  0
 11 24  1  0  0  0  0
 12 13  1  0  0  0  0
 12 25  1  0  0  0  0
 13 26  1  0  0  0  0
M  END
$$$$
