
 OpenBabel04232216523D

 70 71  0  0  1  0  0  0  0  0999 V2000
    3.8937   -5.0496    1.9384 C   0  0  0  0  0  0  0  0  0  0  0  0
    3.1500   -3.7438    1.7160 C   0  0  0  0  0  0  0  0  0  0  0  0
    4.0517   -2.5475    2.0012 C   0  0  0  0  0  0  0  0  0  0  0  0
    3.3076   -1.2342    1.7827 C   0  0  0  0  0  0  0  0  0  0  0  0
    4.2375   -0.0542    2.0525 C   0  0  3  0  0  0  0  0  0  0  0  0
    3.5550    1.3263    1.8565 C   0  0  3  0  0  0  0  0  0  0  0  0
    3.6300    2.2190    3.0883 C   0  0  0  0  0  0  0  0  0  0  0  0
    2.9819    3.5684    2.7955 C   0  0  0  0  0  0  0  0  0  0  0  0
    2.9969    4.5028    4.0068 C   0  0  0  0  0  0  0  0  0  0  0  0
    4.4164    4.8189    4.4882 C   0  0  0  0  0  0  0  0  0  0  0  0
    4.4432    5.7078    5.7423 C   0  0  0  0  0  0  0  0  0  0  0  0
    3.8617    7.0928    5.5470 C   0  0  0  0  0  0  0  0  0  0  0  0
    3.1451    7.6233    6.4150 O   0  0  0  0  0  0  0  0  0  0  0  0
    4.2824    7.6793    4.3831 N   0  0  0  0  0  0  0  0  0  0  0  0
    3.8089    8.7716    3.6692 C   0  0  0  0  0  0  0  0  0  0  0  0
    2.6685    9.5032    4.0102 C   0  0  0  0  0  0  0  0  0  0  0  0
    2.0160   10.4849    3.2336 N   0  0  0  0  0  0  0  0  0  0  0  0
    2.3260   10.3138    1.8654 C   0  0  0  0  0  0  0  0  0  0  0  0
    2.1056   10.9931    0.5464 C   0  0  0  0  0  0  0  0  0  0  0  0
    3.2924   10.2594   -0.1246 C   0  0  0  0  0  0  0  0  0  0  0  0
    3.9238   10.3359   -1.4646 C   0  0  0  0  0  0  0  0  0  0  0  0
    5.2567    9.4303   -1.3324 C   0  0  0  0  0  0  0  0  0  0  0  0
    6.2040    8.7255   -0.2388 C   0  0  0  0  0  0  0  0  0  0  0  0
    5.9268    8.3207    1.2707 C   0  0  0  0  0  0  0  0  0  0  0  0
    4.7426    8.9474    2.2490 C   0  0  0  0  0  0  0  0  0  0  0  0
    1.8748    9.2611    5.0952 O   0  0  0  0  0  0  0  0  0  0  0  0
    4.6068    1.5778    0.7934 C   0  0  0  0  0  0  0  0  0  0  0  0
    5.1627    0.3627    0.9289 C   0  0  0  0  0  0  0  0  0  0  0  0
    3.2408   -5.8996    1.7221 H   0  0  0  0  0  0  0  0  0  0  0  0
    4.2325   -5.1329    2.9760 H   0  0  0  0  0  0  0  0  0  0  0  0
    4.7696   -5.1151    1.2851 H   0  0  0  0  0  0  0  0  0  0  0  0
    2.2687   -3.7121    2.3672 H   0  0  0  0  0  0  0  0  0  0  0  0
    2.7914   -3.7016    0.6810 H   0  0  0  0  0  0  0  0  0  0  0  0
    4.9374   -2.5862    1.3562 H   0  0  0  0  0  0  0  0  0  0  0  0
    4.4130   -2.5942    3.0365 H   0  0  0  0  0  0  0  0  0  0  0  0
    2.4505   -1.1863    2.4671 H   0  0  0  0  0  0  0  0  0  0  0  0
    2.9057   -1.1882    0.7628 H   0  0  0  0  0  0  0  0  0  0  0  0
    4.7273   -0.1595    3.0336 H   0  0  0  0  0  0  0  0  0  0  0  0
    2.5264    1.2524    1.4752 H   0  0  0  0  0  0  0  0  0  0  0  0
    4.6773    2.3419    3.3861 H   0  0  0  0  0  0  0  0  0  0  0  0
    3.1138    1.7403    3.9313 H   0  0  0  0  0  0  0  0  0  0  0  0
    1.9405    3.4077    2.4874 H   0  0  0  0  0  0  0  0  0  0  0  0
    3.4825    4.0513    1.9470 H   0  0  0  0  0  0  0  0  0  0  0  0
    2.4223    4.0504    4.8213 H   0  0  0  0  0  0  0  0  0  0  0  0
    2.4790    5.4277    3.7234 H   0  0  0  0  0  0  0  0  0  0  0  0
    4.9869    5.2522    3.6579 H   0  0  0  0  0  0  0  0  0  0  0  0
    4.9407    3.8960    4.7543 H   0  0  0  0  0  0  0  0  0  0  0  0
    5.4849    5.8439    6.0591 H   0  0  0  0  0  0  0  0  0  0  0  0
    3.9047    5.2075    6.5449 H   0  0  0  0  0  0  0  0  0  0  0  0
    5.0436    7.2008    3.9224 H   0  0  0  0  0  0  0  0  0  0  0  0
    1.0278   10.4852    3.4799 H   0  0  0  0  0  0  0  0  0  0  0  0
    2.1489    9.2475    1.6812 H   0  0  0  0  0  0  0  0  0  0  0  0
    3.3581   10.6137    2.0250 H   0  0  0  0  0  0  0  0  0  0  0  0
    2.2534   12.0769    0.5883 H   0  0  0  0  0  0  0  0  0  0  0  0
    1.1431   10.7512    0.0996 H   0  0  0  0  0  0  0  0  0  0  0  0
    3.1023    9.1790    0.0054 H   0  0  0  0  0  0  0  0  0  0  0  0
    4.1557   10.5440    0.4727 H   0  0  0  0  0  0  0  0  0  0  0  0
    4.1893   11.3656   -1.7215 H   0  0  0  0  0  0  0  0  0  0  0  0
    3.2783    9.9537   -2.2548 H   0  0  0  0  0  0  0  0  0  0  0  0
    4.6303    8.5388   -1.2604 H   0  0  0  0  0  0  0  0  0  0  0  0
    5.6866   10.3328   -0.8963 H   0  0  0  0  0  0  0  0  0  0  0  0
    7.1571    9.2894   -0.2513 H   0  0  0  0  0  0  0  0  0  0  0  0
    6.5406    7.7980   -0.7427 H   0  0  0  0  0  0  0  0  0  0  0  0
    6.8983    8.5182    1.7603 H   0  0  0  0  0  0  0  0  0  0  0  0
    5.8698    7.2206    1.3004 H   0  0  0  0  0  0  0  0  0  0  0  0
    5.5496    9.1875    2.9541 H   0  0  0  0  0  0  0  0  0  0  0  0
    4.1694    8.0692    1.9207 H   0  0  0  0  0  0  0  0  0  0  0  0
    2.4301    8.9117    5.8166 H   0  0  0  0  0  0  0  0  0  0  0  0
    4.8074    2.4336    0.1528 H   0  0  0  0  0  0  0  0  0  0  0  0
    5.9994   -0.1397    0.4411 H   0  0  0  0  0  0  0  0  0  0  0  0
  1  2  1  0  0  0  0
  1 29  1  0  0  0  0
  1 30  1  0  0  0  0
  1 31  1  0  0  0  0
  2  3  1  0  0  0  0
  2 32  1  0  0  0  0
  2 33  1  0  0  0  0
  3  4  1  0  0  0  0
  3 34  1  0  0  0  0
  3 35  1  0  0  0  0
  4  5  1  0  0  0  0
  4 36  1  0  0  0  0
  4 37  1  0  0  0  0
  5  6  1  0  0  0  0
  5 28  1  0  0  0  0
  5 38  1  0  0  0  0
  6  7  1  0  0  0  0
  6 27  1  0  0  0  0
  6 39  1  0  0  0  0
  7  8  1  0  0  0  0
  7 40  1  0  0  0  0
  7 41  1  0  0  0  0
  8  9  1  0  0  0  0
  8 42  1  0  0  0  0
  8 43  1  0  0  0  0
  9 10  1  0  0  0  0
  9 44  1  0  0  0  0
  9 45  1  0  0  0  0
 10 11  1  0  0  0  0
 10 46  1  0  0  0  0
 10 47  1  0  0  0  0
 11 12  1  0  0  0  0
 11 48  1  0  0  0  0
 11 49  1  0  0  0  0
 12 13  2  0  0  0  0
 12 14  1  0  0  0  0
 14 15  1  0  0  0  0
 14 50  1  0  0  0  0
 15 16  2  3  0  0  0
 15 25  1  0  0  0  0
 16 17  1  0  0  0  0
 16 26  1  0  0  0  0
 17 18  1  0  0  0  0
 17 51  1  0  0  0  0
 18 19  1  0  0  0  0
 18 52  1  0  0  0  0
 18 53  1  0  0  0  0
 19 20  1  0  0  0  0
 19 54  1  0  0  0  0
 19 55  1  0  0  0  0
 20 21  1  0  0  0  0
 20 56  1  0  0  0  0
 20 57  1  0  0  0  0
 21 22  1  0  0  0  0
 21 58  1  0  0  0  0
 21 59  1  0  0  0  0
 22 23  1  0  0  0  0
 22 60  1  0  0  0  0
 22 61  1  0  0  0  0
 23 24  1  0  0  0  0
 23 62  1  0  0  0  0
 23 63  1  0  0  0  0
 24 25  1  0  0  0  0
 24 64  1  0  0  0  0
 24 65  1  0  0  0  0
 25 66  1  0  0  0  0
 25 67  1  0  0  0  0
 26 68  1  0  0  0  0
 27 28  2  0  0  0  0
 27 69  1  0  0  0  0
 28 70  1  0  0  0  0
M  END
$$$$
