
 OpenBabel04232216553D

 27 27  0  0  0  0  0  0  0  0999 V2000
    2.8852    0.6116    1.4790 C   0  0  0  0  0  0  0  0  0  0  0  0
    2.5724    0.1634    0.0566 C   0  0  0  0  0  0  0  0  0  0  0  0
    3.1645    1.0993   -0.9990 C   0  0  0  0  0  0  0  0  0  0  0  0
    4.6002    1.1536   -0.9127 N   0  0  0  0  0  0  0  0  0  0  0  0
    5.4997    0.2206   -1.0351 C   0  0  0  0  0  0  0  0  0  0  0  0
    6.5005    1.1189   -1.0101 C   0  0  0  0  0  0  0  0  0  0  0  0
    5.4746    2.1132   -0.9862 C   0  0  0  0  0  0  0  0  0  0  0  0
    5.4983    3.4507   -1.0156 C   0  0  0  0  0  0  0  0  0  0  0  0
    4.3157    4.3709   -1.0503 C   0  0  0  0  0  0  0  0  0  0  0  0
    3.8624    4.7704    0.3473 C   0  0  0  0  0  0  0  0  0  0  0  0
    2.6420    5.6553    0.3061 C   0  0  0  0  0  0  0  0  0  0  0  0
    2.0697    6.0069   -0.7191 O   0  0  0  0  0  0  0  0  0  0  0  0
    2.4260   -0.0713    2.1997 H   0  0  0  0  0  0  0  0  0  0  0  0
    2.4968    1.6176    1.6667 H   0  0  0  0  0  0  0  0  0  0  0  0
    3.9629    0.6205    1.6703 H   0  0  0  0  0  0  0  0  0  0  0  0
    1.4840    0.1338   -0.0714 H   0  0  0  0  0  0  0  0  0  0  0  0
    2.9391   -0.8588   -0.0918 H   0  0  0  0  0  0  0  0  0  0  0  0
    2.7202    2.0883   -0.8532 H   0  0  0  0  0  0  0  0  0  0  0  0
    2.8645    0.7648   -1.9993 H   0  0  0  0  0  0  0  0  0  0  0  0
    5.4815   -0.8670   -1.1011 H   0  0  0  0  0  0  0  0  0  0  0  0
    7.5795    1.1116   -1.0562 H   0  0  0  0  0  0  0  0  0  0  0  0
    6.4746    3.9290   -1.0571 H   0  0  0  0  0  0  0  0  0  0  0  0
    3.4906    3.9139   -1.6059 H   0  0  0  0  0  0  0  0  0  0  0  0
    4.5863    5.2651   -1.6259 H   0  0  0  0  0  0  0  0  0  0  0  0
    4.6532    5.3146    0.8746 H   0  0  0  0  0  0  0  0  0  0  0  0
    3.6036    3.8872    0.9439 H   0  0  0  0  0  0  0  0  0  0  0  0
    2.2689    5.9822    1.2922 H   0  0  0  0  0  0  0  0  0  0  0  0
  1  2  1  0  0  0  0
  1 13  1  0  0  0  0
  1 14  1  0  0  0  0
  1 15  1  0  0  0  0
  2  3  1  0  0  0  0
  2 16  1  0  0  0  0
  2 17  1  0  0  0  0
  3  4  1  0  0  0  0
  3 18  1  0  0  0  0
  3 19  1  0  0  0  0
  4  5  1  0  0  0  0
  4  7  1  0  0  0  0
  5  6  2  0  0  0  0
  5 20  1  0  0  0  0
  6  7  1  0  0  0  0
  6 21  1  0  0  0  0
  7  8  2  3  0  0  0
  8  9  1  0  0  0  0
  8 22  1  0  0  0  0
  9 10  1  0  0  0  0
  9 23  1  0  0  0  0
  9 24  1  0  0  0  0
 10 11  1  0  0  0  0
 10 25  1  0  0  0  0
 10 26  1  0  0  0  0
 11 12  2  0  0  0  0
 11 27  1  0  0  0  0
M  END
$$$$
