
 OpenBabel04232216393D

 53 55  0  0  0  0  0  0  0  0999 V2000
    8.2094   10.2629    5.3606 C   0  0  0  0  0  0  0  0  0  0  0  0
    7.0919    9.5290    5.2271 C   0  0  0  0  0  0  0  0  0  0  0  0
    6.8282    8.3825    4.3055 C   0  0  0  0  0  0  0  0  0  0  0  0
    7.9412    7.7134    3.8807 C   0  0  0  0  0  0  0  0  0  0  0  0
    8.2474    6.2994    4.2885 C   0  0  0  0  0  0  0  0  0  0  0  0
    8.0807    5.9207    5.4445 O   0  0  0  0  0  0  0  0  0  0  0  0
    8.9412    5.3851    3.3082 C   0  0  0  0  0  0  0  0  0  0  0  0
   10.4304    5.4316    3.3037 C   0  0  0  0  0  0  0  0  0  0  0  0
   11.0145    4.9721    4.6440 C   0  0  0  0  0  0  0  0  0  0  0  0
   12.5414    4.9767    4.6347 C   0  0  0  0  0  0  0  0  0  0  0  0
   13.0839    4.5041    5.9845 C   0  0  0  0  0  0  0  0  0  0  0  0
   14.6115    4.5048    6.0131 C   0  0  0  0  0  0  0  0  0  0  0  0
   15.1345    4.0289    7.3684 C   0  0  0  0  0  0  0  0  0  0  0  0
   16.6536    4.0278    7.4139 C   0  0  0  0  0  0  0  0  0  0  0  0
    8.2086    4.5042    2.6183 C   0  0  0  0  0  0  0  0  0  0  0  0
    7.9117    3.4963    1.7834 C   0  0  0  0  0  0  0  0  0  0  0  0
    6.8073    4.0301    2.3052 C   0  0  0  0  0  0  0  0  0  0  0  0
    6.1223    5.0446    3.1442 C   0  0  0  0  0  0  0  0  0  0  0  0
    4.7349    5.4746    3.5033 C   0  0  0  0  0  0  0  0  0  0  0  0
    5.0018    6.6034    4.5294 C   0  0  0  0  0  0  0  0  0  0  0  0
    4.5504    6.4751    5.8402 C   0  0  0  0  0  0  0  0  0  0  0  0
    3.8597    7.5464    6.3861 C   0  0  0  0  0  0  0  0  0  0  0  0
    3.5769    8.6258    5.5494 C   0  0  0  0  0  0  0  0  0  0  0  0
    4.3135    8.7810    4.3698 C   0  0  0  0  0  0  0  0  0  0  0  0
    5.3467    7.8801    4.0999 C   0  0  0  0  0  0  0  0  0  0  0  0
    8.2970   10.9890    6.1665 H   0  0  0  0  0  0  0  0  0  0  0  0
    9.0867   10.1584    4.7331 H   0  0  0  0  0  0  0  0  0  0  0  0
    6.3159    9.7046    5.9744 H   0  0  0  0  0  0  0  0  0  0  0  0
    8.9091    8.2130    3.9087 H   0  0  0  0  0  0  0  0  0  0  0  0
   10.7529    6.4516    3.0875 H   0  0  0  0  0  0  0  0  0  0  0  0
   10.8251    4.8014    2.4984 H   0  0  0  0  0  0  0  0  0  0  0  0
   10.6502    3.9631    4.8794 H   0  0  0  0  0  0  0  0  0  0  0  0
   10.6702    5.6307    5.4521 H   0  0  0  0  0  0  0  0  0  0  0  0
   12.9040    5.9899    4.4224 H   0  0  0  0  0  0  0  0  0  0  0  0
   12.9090    4.3229    3.8350 H   0  0  0  0  0  0  0  0  0  0  0  0
   12.7131    3.4929    6.1933 H   0  0  0  0  0  0  0  0  0  0  0  0
   12.7033    5.1564    6.7801 H   0  0  0  0  0  0  0  0  0  0  0  0
   14.9820    5.5169    5.8101 H   0  0  0  0  0  0  0  0  0  0  0  0
   14.9953    3.8530    5.2190 H   0  0  0  0  0  0  0  0  0  0  0  0
   14.7678    3.0167    7.5751 H   0  0  0  0  0  0  0  0  0  0  0  0
   14.7524    4.6802    8.1635 H   0  0  0  0  0  0  0  0  0  0  0  0
   17.0686    3.3584    6.6538 H   0  0  0  0  0  0  0  0  0  0  0  0
   17.0023    3.6871    8.3938 H   0  0  0  0  0  0  0  0  0  0  0  0
   17.0514    5.0331    7.2424 H   0  0  0  0  0  0  0  0  0  0  0  0
    8.2301    2.7066    1.1416 H   0  0  0  0  0  0  0  0  0  0  0  0
    6.4805    5.9797    2.6940 H   0  0  0  0  0  0  0  0  0  0  0  0
    6.4769    4.7811    4.1500 H   0  0  0  0  0  0  0  0  0  0  0  0
    4.1424    4.6696    3.9475 H   0  0  0  0  0  0  0  0  0  0  0  0
    4.1807    5.8716    2.6451 H   0  0  0  0  0  0  0  0  0  0  0  0
    4.6119    5.5229    6.3596 H   0  0  0  0  0  0  0  0  0  0  0  0
    3.4248    7.4693    7.3748 H   0  0  0  0  0  0  0  0  0  0  0  0
    2.7861    9.3238    5.8090 H   0  0  0  0  0  0  0  0  0  0  0  0
    4.0347    9.5338    3.6415 H   0  0  0  0  0  0  0  0  0  0  0  0
  1  2  2  0  0  0  0
  1 26  1  0  0  0  0
  1 27  1  0  0  0  0
  2  3  1  0  0  0  0
  2 28  1  0  0  0  0
  3  4  2  3  0  0  0
  3 25  1  0  0  0  0
  4  5  1  0  0  0  0
  4 29  1  0  0  0  0
  5  6  2  0  0  0  0
  5  7  1  0  0  0  0
  7  8  1  0  0  0  0
  7 15  2  3  0  0  0
  8  9  1  0  0  0  0
  8 30  1  0  0  0  0
  8 31  1  0  0  0  0
  9 10  1  0  0  0  0
  9 32  1  0  0  0  0
  9 33  1  0  0  0  0
 10 11  1  0  0  0  0
 10 34  1  0  0  0  0
 10 35  1  0  0  0  0
 11 12  1  0  0  0  0
 11 36  1  0  0  0  0
 11 37  1  0  0  0  0
 12 13  1  0  0  0  0
 12 38  1  0  0  0  0
 12 39  1  0  0  0  0
 13 14  1  0  0  0  0
 13 40  1  0  0  0  0
 13 41  1  0  0  0  0
 14 42  1  0  0  0  0
 14 43  1  0  0  0  0
 14 44  1  0  0  0  0
 15 16  1  0  0  0  0
 15 17  1  0  0  0  0
 16 17  2  0  0  0  0
 16 45  1  0  0  0  0
 17 18  1  0  0  0  0
 18 19  1  0  0  0  0
 18 46  1  0  0  0  0
 18 47  1  0  0  0  0
 19 20  1  0  0  0  0
 19 48  1  0  0  0  0
 19 49  1  0  0  0  0
 20 21  1  0  0  0  0
 20 25  2  0  0  0  0
 21 22  2  0  0  0  0
 21 50  1  0  0  0  0
 22 23  1  0  0  0  0
 22 51  1  0  0  0  0
 23 24  2  0  0  0  0
 23 52  1  0  0  0  0
 24 25  1  0  0  0  0
 24 53  1  0  0  0  0
M  END
$$$$
