
 OpenBabel04232216553D

 60 63  0  0  0  0  0  0  0  0999 V2000
    0.4295   -1.7307   -0.4404 C   0  0  0  0  0  0  0  0  0  0  0  0
    1.7077   -1.3780   -1.0688 N   0  0  0  0  0  0  0  0  0  0  0  0
    1.9823    0.0233   -1.1078 C   0  0  0  0  0  0  0  0  0  0  0  0
    3.2812    0.4146   -0.3888 C   0  0  0  0  0  0  0  0  0  0  0  0
    3.1200    1.5597    0.6187 C   0  0  0  0  0  0  0  0  0  0  0  0
    3.1900    2.9659    0.0328 C   0  0  0  0  0  0  0  0  0  0  0  0
    1.9253    3.4481   -0.6749 C   0  0  0  0  0  0  0  0  0  0  0  0
    2.0973    3.5928   -2.1956 C   0  0  0  0  0  0  0  0  0  0  0  0
    0.7444    3.6280   -2.9161 C   0  0  0  0  0  0  0  0  0  0  0  0
    0.2886    2.3018   -3.5245 C   0  0  0  0  0  0  0  0  0  0  0  0
    0.2837    1.1296   -2.5478 C   0  0  0  0  0  0  0  0  0  0  0  0
    1.7012    0.6261   -2.2916 C   0  0  0  0  0  0  0  0  0  0  0  0
    2.4040    0.1613   -3.3685 N   0  0  0  0  0  0  0  0  0  0  0  0
    1.9481   -0.9970   -3.7490 C   0  0  0  0  0  0  0  0  0  0  0  0
    2.4891   -2.2636   -3.3848 N   0  0  0  0  0  0  0  0  0  0  0  0
    2.0211   -3.2107   -4.3767 C   0  0  0  0  0  0  0  0  0  0  0  0
    2.6212   -3.8560   -5.4277 C   0  0  0  0  0  0  0  0  0  0  0  0
    2.0008   -4.0620   -6.7441 C   0  0  0  0  0  0  0  0  0  0  0  0
    2.8600   -4.7648   -7.5097 C   0  0  0  0  0  0  0  0  0  0  0  0
    4.0577   -5.0066   -6.7394 C   0  0  0  0  0  0  0  0  0  0  0  0
    3.9785   -4.3782   -5.5584 C   0  0  0  0  0  0  0  0  0  0  0  0
    5.0530   -4.0136   -4.6985 C   0  0  0  0  0  0  0  0  0  0  0  0
    6.0888   -4.6961   -4.2232 C   0  0  0  0  0  0  0  0  0  0  0  0
    6.7171   -4.0056   -3.1004 C   0  0  0  0  0  0  0  0  0  0  0  0
    6.5997   -4.5359   -1.8662 C   0  0  0  0  0  0  0  0  0  0  0  0
    5.7943   -3.7176   -0.9478 C   0  0  0  0  0  0  0  0  0  0  0  0
    4.4608   -3.9461   -1.0093 C   0  0  0  0  0  0  0  0  0  0  0  0
    3.3569   -2.9952   -1.0149 C   0  0  0  0  0  0  0  0  0  0  0  0
    2.5024   -2.3533   -1.8769 C   0  0  0  0  0  0  0  0  0  0  0  0
   -0.1877   -2.3415   -1.1001 H   0  0  0  0  0  0  0  0  0  0  0  0
   -0.1502   -0.8194   -0.2154 H   0  0  0  0  0  0  0  0  0  0  0  0
    0.5855   -2.2315    0.5188 H   0  0  0  0  0  0  0  0  0  0  0  0
    4.0727    0.6720   -1.1096 H   0  0  0  0  0  0  0  0  0  0  0  0
    3.6515   -0.4388    0.1533 H   0  0  0  0  0  0  0  0  0  0  0  0
    3.9547    1.4775    1.3504 H   0  0  0  0  0  0  0  0  0  0  0  0
    2.2040    1.4434    1.2144 H   0  0  0  0  0  0  0  0  0  0  0  0
    4.0837    3.0743   -0.6083 H   0  0  0  0  0  0  0  0  0  0  0  0
    3.3635    3.6446    0.8771 H   0  0  0  0  0  0  0  0  0  0  0  0
    1.6578    4.4392   -0.2775 H   0  0  0  0  0  0  0  0  0  0  0  0
    1.0920    2.7926   -0.4085 H   0  0  0  0  0  0  0  0  0  0  0  0
    2.7620    2.8167   -2.6095 H   0  0  0  0  0  0  0  0  0  0  0  0
    2.6273    4.5252   -2.3793 H   0  0  0  0  0  0  0  0  0  0  0  0
    0.8104    4.3583   -3.7259 H   0  0  0  0  0  0  0  0  0  0  0  0
   -0.0284    3.9870   -2.2279 H   0  0  0  0  0  0  0  0  0  0  0  0
    0.9123    2.0641   -4.3957 H   0  0  0  0  0  0  0  0  0  0  0  0
   -0.7273    2.4351   -3.9151 H   0  0  0  0  0  0  0  0  0  0  0  0
   -0.3425    0.3297   -2.9598 H   0  0  0  0  0  0  0  0  0  0  0  0
   -0.2100    1.4226   -1.6126 H   0  0  0  0  0  0  0  0  0  0  0  0
    0.8471   -1.1222   -3.8100 H   0  0  0  0  0  0  0  0  0  0  0  0
    1.0000   -2.9302   -4.6639 H   0  0  0  0  0  0  0  0  0  0  0  0
    1.1240   -3.5576   -7.1290 H   0  0  0  0  0  0  0  0  0  0  0  0
    2.7748   -4.9470   -8.5739 H   0  0  0  0  0  0  0  0  0  0  0  0
    4.9575   -5.4433   -7.1825 H   0  0  0  0  0  0  0  0  0  0  0  0
    4.8780   -2.9912   -4.3438 H   0  0  0  0  0  0  0  0  0  0  0  0
    6.2915   -5.7451   -4.4283 H   0  0  0  0  0  0  0  0  0  0  0  0
    6.6023   -2.9168   -3.1692 H   0  0  0  0  0  0  0  0  0  0  0  0
    6.5753   -5.6153   -1.7303 H   0  0  0  0  0  0  0  0  0  0  0  0
    6.1978   -2.7220   -0.7881 H   0  0  0  0  0  0  0  0  0  0  0  0
    4.2167   -4.6596   -0.2051 H   0  0  0  0  0  0  0  0  0  0  0  0
    3.1828   -2.7381    0.0382 H   0  0  0  0  0  0  0  0  0  0  0  0
  1  2  1  0  0  0  0
  1 30  1  0  0  0  0
  1 31  1  0  0  0  0
  1 32  1  0  0  0  0
  2  3  1  0  0  0  0
  2 29  1  0  0  0  0
  3  4  1  0  0  0  0
  3 12  2  0  0  0  0
  4  5  1  0  0  0  0
  4 33  1  0  0  0  0
  4 34  1  0  0  0  0
  5  6  1  0  0  0  0
  5 35  1  0  0  0  0
  5 36  1  0  0  0  0
  6  7  1  0  0  0  0
  6 37  1  0  0  0  0
  6 38  1  0  0  0  0
  7  8  1  0  0  0  0
  7 39  1  0  0  0  0
  7 40  1  0  0  0  0
  8  9  1  0  0  0  0
  8 41  1  0  0  0  0
  8 42  1  0  0  0  0
  9 10  1  0  0  0  0
  9 43  1  0  0  0  0
  9 44  1  0  0  0  0
 10 11  1  0  0  0  0
 10 45  1  0  0  0  0
 10 46  1  0  0  0  0
 11 12  1  0  0  0  0
 11 47  1  0  0  0  0
 11 48  1  0  0  0  0
 12 13  1  0  0  0  0
 13 14  2  0  0  0  0
 14 15  1  0  0  0  0
 14 49  1  0  0  0  0
 15 16  1  0  0  0  0
 15 29  1  0  0  0  0
 16 17  2  3  0  0  0
 16 50  1  0  0  0  0
 17 18  1  0  0  0  0
 17 21  1  0  0  0  0
 18 19  2  0  0  0  0
 18 51  1  0  0  0  0
 19 20  1  0  0  0  0
 19 52  1  0  0  0  0
 20 21  2  0  0  0  0
 20 53  1  0  0  0  0
 21 22  1  0  0  0  0
 22 23  2  3  0  0  0
 22 54  1  0  0  0  0
 23 24  1  0  0  0  0
 23 55  1  0  0  0  0
 24 25  2  3  0  0  0
 24 56  1  0  0  0  0
 25 26  1  0  0  0  0
 25 57  1  0  0  0  0
 26 27  2  3  0  0  0
 26 58  1  0  0  0  0
 27 28  1  0  0  0  0
 27 59  1  0  0  0  0
 28 29  2  3  0  0  0
 28 60  1  0  0  0  0
M  END
$$$$
