
 OpenBabel04232216573D

155154  0  0  0  0  0  0  0  0999 V2000
   25.7606   20.3000   -3.2709 N   0  0  0  0  0  0  0  0  0  0  0  0
   24.8655   19.3587   -3.2949 C   0  0  0  0  0  0  0  0  0  0  0  0
   23.3942   19.5746   -3.6975 C   0  0  0  0  0  0  0  0  0  0  0  0
   23.1302   20.9680   -4.1433 N   0  0  0  0  0  0  0  0  0  0  0  0
   23.9893   21.2509   -5.2974 N   0  0  0  0  0  0  0  0  0  0  0  0
   23.7183   20.3683   -6.3875 N   0  0  0  0  0  0  0  0  0  0  0  0
   24.5620   20.6278   -7.4911 N   0  0  0  0  0  0  0  0  0  0  0  0
   25.9206   20.4151   -7.1117 N   0  0  0  0  0  0  0  0  0  0  0  0
   26.1151   19.0595   -6.6687 N   0  0  0  0  0  0  0  0  0  0  0  0
   25.7623   18.1601   -7.7415 N   0  0  0  0  0  0  0  0  0  0  0  0
   26.6115   18.4181   -8.8716 N   0  0  0  0  0  0  0  0  0  0  0  0
   27.9945   18.2524   -8.5123 N   0  0  0  0  0  0  0  0  0  0  0  0
   28.1942   16.9079   -8.0795 N   0  0  0  0  0  0  0  0  0  0  0  0
   27.8094   15.9972   -9.1139 N   0  0  0  0  0  0  0  0  0  0  0  0
   28.6385   16.2376  -10.2657 N   0  0  0  0  0  0  0  0  0  0  0  0
   30.0128   16.0821   -9.9057 N   0  0  0  0  0  0  0  0  0  0  0  0
   30.2563   14.7383   -9.4581 N   0  0  0  0  0  0  0  0  0  0  0  0
   29.8782   13.8232  -10.4820 N   0  0  0  0  0  0  0  0  0  0  0  0
   30.6606   14.0586  -11.6483 N   0  0  0  0  0  0  0  0  0  0  0  0
   32.0595   13.9034  -11.3198 N   0  0  0  0  0  0  0  0  0  0  0  0
   32.3320   12.5672  -10.8443 N   0  0  0  0  0  0  0  0  0  0  0  0
   31.9277   11.6471  -11.8354 N   0  0  0  0  0  0  0  0  0  0  0  0
   32.7042   11.8957  -13.0106 N   0  0  0  0  0  0  0  0  0  0  0  0
   34.0980   11.7797  -12.6710 N   0  0  0  0  0  0  0  0  0  0  0  0
   34.3732   10.4515  -12.1925 N   0  0  0  0  0  0  0  0  0  0  0  0
   34.0298    9.4792  -13.1913 N   0  0  0  0  0  0  0  0  0  0  0  0
   34.7779    9.7344  -14.3800 N   0  0  0  0  0  0  0  0  0  0  0  0
   36.1635    9.6226  -14.0739 N   0  0  0  0  0  0  0  0  0  0  0  0
   36.4641    8.3160  -13.5745 N   0  0  0  0  0  0  0  0  0  0  0  0
   36.1011    7.3351  -14.5436 N   0  0  0  0  0  0  0  0  0  0  0  0
   36.8532    7.5565  -15.7444 N   0  0  0  0  0  0  0  0  0  0  0  0
   38.2596    7.4744  -15.4542 N   0  0  0  0  0  0  0  0  0  0  0  0
   38.5926    6.1757  -14.9500 N   0  0  0  0  0  0  0  0  0  0  0  0
   38.2315    5.1930  -15.8922 N   0  0  0  0  0  0  0  0  0  0  0  0
   38.9326    5.4340  -17.1007 N   0  0  0  0  0  0  0  0  0  0  0  0
   40.3444    5.3505  -16.8430 N   0  0  0  0  0  0  0  0  0  0  0  0
   40.7130    4.0571  -16.3090 N   0  0  0  0  0  0  0  0  0  0  0  0
   40.3512    3.0311  -17.2378 N   0  0  0  0  0  0  0  0  0  0  0  0
   41.0619    3.2468  -18.4691 N   0  0  0  0  0  0  0  0  0  0  0  0
   42.4832    3.2059  -18.2286 N   0  0  0  0  0  0  0  0  0  0  0  0
   42.8153    1.9601  -17.6559 N   0  0  0  0  0  0  0  0  0  0  0  0
   42.4427    0.9315  -18.5788 N   0  0  0  0  0  0  0  0  0  0  0  0
   43.1414    1.1327  -19.8186 N   0  0  0  0  0  0  0  0  0  0  0  0
   44.5324    1.1393  -19.5819 N   0  0  0  0  0  0  0  0  0  0  0  0
   44.9318   -0.1238  -19.0277 N   0  0  0  0  0  0  0  0  0  0  0  0
   44.5648   -1.1616  -19.9327 N   0  0  0  0  0  0  0  0  0  0  0  0
   45.2197   -0.9533  -21.1842 N   0  0  0  0  0  0  0  0  0  0  0  0
   46.6576   -0.9776  -20.9914 N   0  0  0  0  0  0  0  0  0  0  0  0
   47.0681   -2.2246  -20.4357 N   0  0  0  0  0  0  0  0  0  0  0  0
   46.6947   -3.2744  -21.3007 N   0  0  0  0  0  0  0  0  0  0  0  0
   47.3385   -3.0931  -22.5754 N   0  0  0  0  0  0  0  0  0  0  0  0
   48.7724   -3.0790  -22.4031 N   0  0  0  0  0  0  0  0  0  0  0  0
   49.1958   -4.3181  -21.8364 N   0  0  0  0  0  0  0  0  0  0  0  0
   48.8479   -5.3983  -22.7160 N   0  0  0  0  0  0  0  0  0  0  0  0
   49.4495   -5.2197  -23.9968 N   0  0  0  0  0  0  0  0  0  0  0  0
   50.8573   -5.1986  -23.8572 N   0  0  0  0  0  0  0  0  0  0  0  0
   51.2887   -6.4149  -23.2728 N   0  0  0  0  0  0  0  0  0  0  0  0
   50.9021   -7.5208  -24.0982 N   0  0  0  0  0  0  0  0  0  0  0  0
   51.4860   -7.3715  -25.3996 N   0  0  0  0  0  0  0  0  0  0  0  0
   52.9201   -7.3331  -25.2919 N   0  0  0  0  0  0  0  0  0  0  0  0
   53.3656   -8.5552  -24.7045 N   0  0  0  0  0  0  0  0  0  0  0  0
   54.8129   -8.5187  -24.5890 C   0  0  0  0  0  0  0  0  0  0  0  0
   55.3027   -9.8164  -23.9618 C   0  0  0  0  0  0  0  0  0  0  0  0
   56.7645   -9.7745  -23.8557 N   0  0  0  0  0  0  0  0  0  0  0  0
   57.2145  -11.0210  -23.2663 N   0  0  0  0  0  0  0  0  0  0  0  0
   58.6686  -10.9784  -23.1627 C   0  0  0  0  0  0  0  0  0  0  0  0
   59.1597  -12.2747  -22.5441 C   0  0  0  0  0  0  0  0  0  0  0  0
   60.6732  -12.2575  -22.4245 C   0  0  0  0  0  0  0  0  0  0  0  0
   61.1645  -13.5522  -21.8076 C   0  0  0  0  0  0  0  0  0  0  0  0
   62.6749  -13.5334  -21.6872 C   0  0  0  0  0  0  0  0  0  0  0  0
   63.1673  -14.8294  -21.0718 C   0  0  0  0  0  0  0  0  0  0  0  0
   64.6739  -14.8062  -20.9537 C   0  0  0  0  0  0  0  0  0  0  0  0
   26.7157   20.0340   -3.0341 H   0  0  0  0  0  0  0  0  0  0  0  0
   25.1359   18.3333   -2.9843 H   0  0  0  0  0  0  0  0  0  0  0  0
   22.7533   19.3387   -2.8532 H   0  0  0  0  0  0  0  0  0  0  0  0
   23.1443   18.8649   -4.5080 H   0  0  0  0  0  0  0  0  0  0  0  0
   23.4548   21.5965   -3.4143 H   0  0  0  0  0  0  0  0  0  0  0  0
   24.9658   21.1397   -4.9856 H   0  0  0  0  0  0  0  0  0  0  0  0
   22.7475   20.4756   -6.6648 H   0  0  0  0  0  0  0  0  0  0  0  0
   24.4342   21.5861   -7.8099 H   0  0  0  0  0  0  0  0  0  0  0  0
   26.1816   21.0846   -6.3866 H   0  0  0  0  0  0  0  0  0  0  0  0
   25.4992   18.8607   -5.8747 H   0  0  0  0  0  0  0  0  0  0  0  0
   24.7695   18.3241   -7.9755 H   0  0  0  0  0  0  0  0  0  0  0  0
   26.4857   19.3693   -9.2177 H   0  0  0  0  0  0  0  0  0  0  0  0
   28.2471   18.9124   -7.7595 H   0  0  0  0  0  0  0  0  0  0  0  0
   27.6131   16.6921   -7.2743 H   0  0  0  0  0  0  0  0  0  0  0  0
   26.8226   16.1406   -9.3514 H   0  0  0  0  0  0  0  0  0  0  0  0
   28.5149   17.1964  -10.5802 H   0  0  0  0  0  0  0  0  0  0  0  0
   30.2582   16.7550   -9.1690 H   0  0  0  0  0  0  0  0  0  0  0  0
   29.6867   14.5274   -8.6439 H   0  0  0  0  0  0  0  0  0  0  0  0
   28.8818   13.9352  -10.6997 H   0  0  0  0  0  0  0  0  0  0  0  0
   30.5346   15.0111  -11.9775 H   0  0  0  0  0  0  0  0  0  0  0  0
   32.2872   14.5969  -10.5923 H   0  0  0  0  0  0  0  0  0  0  0  0
   31.7532   12.3995  -10.0208 H   0  0  0  0  0  0  0  0  0  0  0  0
   30.9300   11.7603  -12.0307 H   0  0  0  0  0  0  0  0  0  0  0  0
   32.5308   12.8508  -13.3276 H   0  0  0  0  0  0  0  0  0  0  0  0
   34.3443   12.4675  -11.9399 H   0  0  0  0  0  0  0  0  0  0  0  0
   33.8328   10.2844  -11.3295 H   0  0  0  0  0  0  0  0  0  0  0  0
   33.0504    9.5533  -13.4337 H   0  0  0  0  0  0  0  0  0  0  0  0
   34.5682   10.6733  -14.7300 H   0  0  0  0  0  0  0  0  0  0  0  0
   36.4435   10.2919  -13.3634 H   0  0  0  0  0  0  0  0  0  0  0  0
   35.9376    8.1599  -12.7039 H   0  0  0  0  0  0  0  0  0  0  0  0
   35.1027    7.3996  -14.7488 H   0  0  0  0  0  0  0  0  0  0  0  0
   36.6835    8.4837  -16.1146 H   0  0  0  0  0  0  0  0  0  0  0  0
   38.4967    8.2034  -14.7631 H   0  0  0  0  0  0  0  0  0  0  0  0
   38.0665    5.9931  -14.0962 H   0  0  0  0  0  0  0  0  0  0  0  0
   37.2430    5.2442  -16.1067 H   0  0  0  0  0  0  0  0  0  0  0  0
   38.6830    6.3675  -17.4468 H   0  0  0  0  0  0  0  0  0  0  0  0
   40.5943    6.0427  -16.1410 H   0  0  0  0  0  0  0  0  0  0  0  0
   40.1739    3.9109  -15.4602 H   0  0  0  0  0  0  0  0  0  0  0  0
   39.3330    3.1161  -17.3780 H   0  0  0  0  0  0  0  0  0  0  0  0
   40.8158    4.1767  -18.8302 H   0  0  0  0  0  0  0  0  0  0  0  0
   42.7035    3.9308  -17.5414 H   0  0  0  0  0  0  0  0  0  0  0  0
   42.2881    1.8464  -16.7824 H   0  0  0  0  0  0  0  0  0  0  0  0
   41.4311    0.9982  -18.7383 H   0  0  0  0  0  0  0  0  0  0  0  0
   42.8968    2.0515  -20.1866 H   0  0  0  0  0  0  0  0  0  0  0  0
   44.7857    1.8651  -18.9244 H   0  0  0  0  0  0  0  0  0  0  0  0
   44.4174   -0.2416  -18.1512 H   0  0  0  0  0  0  0  0  0  0  0  0
   43.5504   -1.1204  -20.0668 H   0  0  0  0  0  0  0  0  0  0  0  0
   44.9628   -0.0586  -21.6013 H   0  0  0  0  0  0  0  0  0  0  0  0
   46.9324   -0.2481  -20.3411 H   0  0  0  0  0  0  0  0  0  0  0  0
   46.6090   -2.3848  -19.5454 H   0  0  0  0  0  0  0  0  0  0  0  0
   45.6918   -3.2803  -21.4455 H   0  0  0  0  0  0  0  0  0  0  0  0
   47.0214   -2.1923  -22.9495 H   0  0  0  0  0  0  0  0  0  0  0  0
   49.0045   -2.3005  -21.7607 H   0  0  0  0  0  0  0  0  0  0  0  0
   48.7485   -4.4670  -20.9262 H   0  0  0  0  0  0  0  0  0  0  0  0
   47.8396   -5.4090  -22.8555 H   0  0  0  0  0  0  0  0  0  0  0  0
   49.1520   -4.3276  -24.3691 H   0  0  0  0  0  0  0  0  0  0  0  0
   51.0984   -4.4451  -23.2190 H   0  0  0  0  0  0  0  0  0  0  0  0
   50.8342   -6.5256  -22.3691 H   0  0  0  0  0  0  0  0  0  0  0  0
   49.8936   -7.4790  -24.1959 H   0  0  0  0  0  0  0  0  0  0  0  0
   51.1750   -6.4657  -25.7517 H   0  0  0  0  0  0  0  0  0  0  0  0
   53.1161   -6.5319  -24.6695 H   0  0  0  0  0  0  0  0  0  0  0  0
   53.0534   -9.3263  -25.2889 H   0  0  0  0  0  0  0  0  0  0  0  0
   55.1151   -7.6750  -23.9548 H   0  0  0  0  0  0  0  0  0  0  0  0
   55.2594   -8.3910  -25.5790 H   0  0  0  0  0  0  0  0  0  0  0  0
   54.9950  -10.6595  -24.5915 H   0  0  0  0  0  0  0  0  0  0  0  0
   54.8554   -9.9402  -22.9680 H   0  0  0  0  0  0  0  0  0  0  0  0
   57.0245   -8.9849  -23.2560 H   0  0  0  0  0  0  0  0  0  0  0  0
   56.9349  -11.8020  -23.8648 H   0  0  0  0  0  0  0  0  0  0  0  0
   58.9806  -10.1393  -22.5293 H   0  0  0  0  0  0  0  0  0  0  0  0
   59.1209  -10.8537  -24.1528 H   0  0  0  0  0  0  0  0  0  0  0  0
   58.8547  -13.1244  -23.1658 H   0  0  0  0  0  0  0  0  0  0  0  0
   58.7183  -12.4058  -21.5489 H   0  0  0  0  0  0  0  0  0  0  0  0
   60.9862  -11.4120  -21.8012 H   0  0  0  0  0  0  0  0  0  0  0  0
   61.1215  -12.1304  -23.4165 H   0  0  0  0  0  0  0  0  0  0  0  0
   60.8556  -14.3987  -22.4311 H   0  0  0  0  0  0  0  0  0  0  0  0
   60.7180  -13.6811  -20.8152 H   0  0  0  0  0  0  0  0  0  0  0  0
   62.9845  -12.6874  -21.0629 H   0  0  0  0  0  0  0  0  0  0  0  0
   63.1223  -13.4026  -22.6793 H   0  0  0  0  0  0  0  0  0  0  0  0
   62.8611  -15.6753  -21.6964 H   0  0  0  0  0  0  0  0  0  0  0  0
   62.7233  -14.9598  -20.0792 H   0  0  0  0  0  0  0  0  0  0  0  0
   65.1296  -14.6888  -21.9416 H   0  0  0  0  0  0  0  0  0  0  0  0
   65.0308  -15.7384  -20.5109 H   0  0  0  0  0  0  0  0  0  0  0  0
   64.9915  -13.9718  -20.3212 H   0  0  0  0  0  0  0  0  0  0  0  0
  1  2  2  0  0  0  0
  1 73  1  0  0  0  0
  2  3  1  0  0  0  0
  2 74  1  0  0  0  0
  3  4  1  0  0  0  0
  3 75  1  0  0  0  0
  3 76  1  0  0  0  0
  4  5  1  0  0  0  0
  4 77  1  0  0  0  0
  5  6  1  0  0  0  0
  5 78  1  0  0  0  0
  6  7  1  0  0  0  0
  6 79  1  0  0  0  0
  7  8  1  0  0  0  0
  7 80  1  0  0  0  0
  8  9  1  0  0  0  0
  8 81  1  0  0  0  0
  9 10  1  0  0  0  0
  9 82  1  0  0  0  0
 10 11  1  0  0  0  0
 10 83  1  0  0  0  0
 11 12  1  0  0  0  0
 11 84  1  0  0  0  0
 12 13  1  0  0  0  0
 12 85  1  0  0  0  0
 13 14  1  0  0  0  0
 13 86  1  0  0  0  0
 14 15  1  0  0  0  0
 14 87  1  0  0  0  0
 15 16  1  0  0  0  0
 15 88  1  0  0  0  0
 16 17  1  0  0  0  0
 16 89  1  0  0  0  0
 17 18  1  0  0  0  0
 17 90  1  0  0  0  0
 18 19  1  0  0  0  0
 18 91  1  0  0  0  0
 19 20  1  0  0  0  0
 19 92  1  0  0  0  0
 20 21  1  0  0  0  0
 20 93  1  0  0  0  0
 21 22  1  0  0  0  0
 21 94  1  0  0  0  0
 22 23  1  0  0  0  0
 22 95  1  0  0  0  0
 23 24  1  0  0  0  0
 23 96  1  0  0  0  0
 24 25  1  0  0  0  0
 24 97  1  0  0  0  0
 25 26  1  0  0  0  0
 25 98  1  0  0  0  0
 26 27  1  0  0  0  0
 26 99  1  0  0  0  0
 27 28  1  0  0  0  0
 27100  1  0  0  0  0
 28 29  1  0  0  0  0
 28101  1  0  0  0  0
 29 30  1  0  0  0  0
 29102  1  0  0  0  0
 30 31  1  0  0  0  0
 30103  1  0  0  0  0
 31 32  1  0  0  0  0
 31104  1  0  0  0  0
 32 33  1  0  0  0  0
 32105  1  0  0  0  0
 33 34  1  0  0  0  0
 33106  1  0  0  0  0
 34 35  1  0  0  0  0
 34107  1  0  0  0  0
 35 36  1  0  0  0  0
 35108  1  0  0  0  0
 36 37  1  0  0  0  0
 36109  1  0  0  0  0
 37 38  1  0  0  0  0
 37110  1  0  0  0  0
 38 39  1  0  0  0  0
 38111  1  0  0  0  0
 39 40  1  0  0  0  0
 39112  1  0  0  0  0
 40 41  1  0  0  0  0
 40113  1  0  0  0  0
 41 42  1  0  0  0  0
 41114  1  0  0  0  0
 42 43  1  0  0  0  0
 42115  1  0  0  0  0
 43 44  1  0  0  0  0
 43116  1  0  0  0  0
 44 45  1  0  0  0  0
 44117  1  0  0  0  0
 45 46  1  0  0  0  0
 45118  1  0  0  0  0
 46 47  1  0  0  0  0
 46119  1  0  0  0  0
 47 48  1  0  0  0  0
 47120  1  0  0  0  0
 48 49  1  0  0  0  0
 48121  1  0  0  0  0
 49 50  1  0  0  0  0
 49122  1  0  0  0  0
 50 51  1  0  0  0  0
 50123  1  0  0  0  0
 51 52  1  0  0  0  0
 51124  1  0  0  0  0
 52 53  1  0  0  0  0
 52125  1  0  0  0  0
 53 54  1  0  0  0  0
 53126  1  0  0  0  0
 54 55  1  0  0  0  0
 54127  1  0  0  0  0
 55 56  1  0  0  0  0
 55128  1  0  0  0  0
 56 57  1  0  0  0  0
 56129  1  0  0  0  0
 57 58  1  0  0  0  0
 57130  1  0  0  0  0
 58 59  1  0  0  0  0
 58131  1  0  0  0  0
 59 60  1  0  0  0  0
 59132  1  0  0  0  0
 60 61  1  0  0  0  0
 60133  1  0  0  0  0
 61 62  1  0  0  0  0
 61134  1  0  0  0  0
 62 63  1  0  0  0  0
 62135  1  0  0  0  0
 62136  1  0  0  0  0
 63 64  1  0  0  0  0
 63137  1  0  0  0  0
 63138  1  0  0  0  0
 64 65  1  0  0  0  0
 64139  1  0  0  0  0
 65 66  1  0  0  0  0
 65140  1  0  0  0  0
 66 67  1  0  0  0  0
 66141  1  0  0  0  0
 66142  1  0  0  0  0
 67 68  1  0  0  0  0
 67143  1  0  0  0  0
 67144  1  0  0  0  0
 68 69  1  0  0  0  0
 68145  1  0  0  0  0
 68146  1  0  0  0  0
 69 70  1  0  0  0  0
 69147  1  0  0  0  0
 69148  1  0  0  0  0
 70 71  1  0  0  0  0
 70149  1  0  0  0  0
 70150  1  0  0  0  0
 71 72  1  0  0  0  0
 71151  1  0  0  0  0
 71152  1  0  0  0  0
 72153  1  0  0  0  0
 72154  1  0  0  0  0
 72155  1  0  0  0  0
M  END
$$$$
