
 OpenBabel04232216463D

 62 64  0  0  1  0  0  0  0  0999 V2000
    5.2030   -4.4385   -2.1664 C   0  0  0  0  0  0  0  0  0  0  0  0
    6.6084   -5.2273   -2.0437 C   0  0  0  0  0  0  0  0  0  0  0  0
    7.1840   -3.7874   -0.7437 C   0  0  0  0  0  0  0  0  0  0  0  0
    6.8888   -2.2025   -0.0614 C   0  0  0  0  0  0  0  0  0  0  0  0
    6.9143   -0.6516    1.1689 C   0  0  3  0  0  0  0  0  0  0  0  0
    7.7055    0.7727    2.2973 C   0  0  0  0  0  0  0  0  0  0  0  0
    7.6441    2.6365    2.7029 C   0  0  0  0  0  0  0  0  0  0  0  0
    7.0218    3.8087    3.9385 C   0  0  0  0  0  0  0  0  0  0  0  0
    5.6813    4.5541    3.6807 C   0  0  0  0  0  0  0  0  0  0  0  0
    4.7554    3.4566    3.2645 C   0  0  0  0  0  0  0  0  0  0  0  0
    3.5021    3.9298    2.8391 O   0  0  0  0  0  0  0  0  0  0  0  0
    7.8846   -1.2253    0.3890 C   0  0  0  0  0  0  0  0  0  0  0  0
    8.9150   -0.5069   -0.1199 C   0  0  0  0  0  0  0  0  0  0  0  0
    9.1753   -0.7151   -1.4978 C   0  0  0  0  0  0  0  0  0  0  0  0
   10.0399   -1.7109   -1.6556 C   0  0  0  0  0  0  0  0  0  0  0  0
    9.5600   -2.7960   -2.4045 C   0  0  0  0  0  0  0  0  0  0  0  0
   10.1556   -3.9818   -2.3037 C   0  0  0  0  0  0  0  0  0  0  0  0
    9.4600   -4.9779   -2.9920 C   0  0  0  0  0  0  0  0  0  0  0  0
   10.0107   -5.8052   -3.8674 C   0  0  0  0  0  0  0  0  0  0  0  0
    9.1069   -5.9010   -4.9537 C   0  0  0  0  0  0  0  0  0  0  0  0
    8.7488   -7.0261   -5.5284 C   0  0  0  0  0  0  0  0  0  0  0  0
    7.2993   -6.9569   -5.7154 C   0  0  0  0  0  0  0  0  0  0  0  0
    6.3534   -7.1581   -4.7627 C   0  0  0  0  0  0  0  0  0  0  0  0
    5.8919   -8.6692   -5.4289 C   0  0  0  0  0  0  0  0  0  0  0  0
    6.5540   -9.4259   -6.4204 C   0  0  0  0  0  0  0  0  0  0  0  0
    7.0263  -10.7484   -6.0957 C   0  0  0  0  0  0  0  0  0  0  0  0
    7.7247  -10.7884   -4.9262 C   0  0  0  0  0  0  0  0  0  0  0  0
    7.5607   -9.8167   -3.5202 C   0  0  0  0  0  0  0  0  0  0  0  0
    7.5460   -8.4157   -2.8575 C   0  0  0  0  0  0  0  0  0  0  0  0
    6.7509   -6.7439   -2.8952 C   0  0  0  0  0  0  0  0  0  0  0  0
    5.1810   -3.4474   -1.6602 H   0  0  0  0  0  0  0  0  0  0  0  0
    4.4316   -4.9257   -1.5578 H   0  0  0  0  0  0  0  0  0  0  0  0
    4.9171   -4.1429   -3.1770 H   0  0  0  0  0  0  0  0  0  0  0  0
    7.0802   -3.2010   -1.7203 H   0  0  0  0  0  0  0  0  0  0  0  0
    6.2823    0.0191    0.5442 H   0  0  0  0  0  0  0  0  0  0  0  0
    8.7762    0.7611    2.0339 H   0  0  0  0  0  0  0  0  0  0  0  0
    7.5990    0.3698    3.2958 H   0  0  0  0  0  0  0  0  0  0  0  0
    7.8404    3.2944    1.8293 H   0  0  0  0  0  0  0  0  0  0  0  0
    8.6474    2.6904    3.1991 H   0  0  0  0  0  0  0  0  0  0  0  0
    7.7311    4.6658    4.0765 H   0  0  0  0  0  0  0  0  0  0  0  0
    6.9893    3.3778    4.9531 H   0  0  0  0  0  0  0  0  0  0  0  0
    5.7606    5.3588    2.9314 H   0  0  0  0  0  0  0  0  0  0  0  0
    5.2758    5.0903    4.5677 H   0  0  0  0  0  0  0  0  0  0  0  0
    4.6424    2.7621    4.1033 H   0  0  0  0  0  0  0  0  0  0  0  0
    5.2221    2.9385    2.4283 H   0  0  0  0  0  0  0  0  0  0  0  0
    3.0455    4.2875    3.6167 H   0  0  0  0  0  0  0  0  0  0  0  0
    9.3536    0.3956    0.2700 H   0  0  0  0  0  0  0  0  0  0  0  0
    8.2907   -0.5706   -2.1251 H   0  0  0  0  0  0  0  0  0  0  0  0
   10.7543   -1.9586   -0.8745 H   0  0  0  0  0  0  0  0  0  0  0  0
    8.5828   -2.6809   -2.8900 H   0  0  0  0  0  0  0  0  0  0  0  0
   11.1030   -4.1604   -1.8319 H   0  0  0  0  0  0  0  0  0  0  0  0
    8.4148   -4.7257   -3.1370 H   0  0  0  0  0  0  0  0  0  0  0  0
   11.0461   -6.0816   -3.8955 H   0  0  0  0  0  0  0  0  0  0  0  0
    8.3232   -5.1330   -5.0149 H   0  0  0  0  0  0  0  0  0  0  0  0
    9.3187   -7.9571   -5.4497 H   0  0  0  0  0  0  0  0  0  0  0  0
    7.1206   -7.2082   -6.7779 H   0  0  0  0  0  0  0  0  0  0  0  0
    5.3008   -9.3536   -4.7765 H   0  0  0  0  0  0  0  0  0  0  0  0
    7.2850   -9.1207   -7.1964 H   0  0  0  0  0  0  0  0  0  0  0  0
    7.0900  -11.5260   -6.9136 H   0  0  0  0  0  0  0  0  0  0  0  0
    8.3187  -11.7302   -4.8784 H   0  0  0  0  0  0  0  0  0  0  0  0
    7.6692  -10.6892   -2.8705 H   0  0  0  0  0  0  0  0  0  0  0  0
    8.2756   -8.0609   -3.5613 H   0  0  0  0  0  0  0  0  0  0  0  0
  1  2  1  0  0  0  0
  1 31  1  0  0  0  0
  1 32  1  0  0  0  0
  1 33  1  0  0  0  0
  2  3  1  0  0  0  0
  2 30  2  3  0  0  0
  3  4  2  3  0  0  0
  3 34  1  0  0  0  0
  4  5  1  0  0  0  0
  4 12  1  0  0  0  0
  5  6  1  0  0  0  0
  5 12  1  0  0  0  0
  5 35  1  0  0  0  0
  6  7  1  0  0  0  0
  6 36  1  0  0  0  0
  6 37  1  0  0  0  0
  7  8  1  0  0  0  0
  7 38  1  0  0  0  0
  7 39  1  0  0  0  0
  8  9  1  0  0  0  0
  8 40  1  0  0  0  0
  8 41  1  0  0  0  0
  9 10  1  0  0  0  0
  9 42  1  0  0  0  0
  9 43  1  0  0  0  0
 10 11  1  0  0  0  0
 10 44  1  0  0  0  0
 10 45  1  0  0  0  0
 11 46  1  0  0  0  0
 12 13  2  3  0  0  0
 13 14  1  0  0  0  0
 13 47  1  0  0  0  0
 14 15  2  3  0  0  0
 14 48  1  0  0  0  0
 15 16  1  0  0  0  0
 15 49  1  0  0  0  0
 16 17  2  3  0  0  0
 16 50  1  0  0  0  0
 17 18  1  0  0  0  0
 17 51  1  0  0  0  0
 18 19  2  3  0  0  0
 18 52  1  0  0  0  0
 19 20  1  0  0  0  0
 19 53  1  0  0  0  0
 20 21  2  3  0  0  0
 20 54  1  0  0  0  0
 21 22  1  0  0  0  0
 21 55  1  0  0  0  0
 22 23  2  3  0  0  0
 22 56  1  0  0  0  0
 23 24  1  0  0  0  0
 23 30  1  0  0  0  0
 24 25  2  0  0  0  0
 24 57  1  0  0  0  0
 25 26  1  0  0  0  0
 25 58  1  0  0  0  0
 26 27  2  0  0  0  0
 26 59  1  0  0  0  0
 27 28  1  0  0  0  0
 27 60  1  0  0  0  0
 28 29  2  0  0  0  0
 28 61  1  0  0  0  0
 29 30  1  0  0  0  0
 29 62  1  0  0  0  0
M  END
$$$$
