
 OpenBabel04232217033D

164163  0  0  0  0  0  0  0  0999 V2000
   23.7125   -1.9796  -25.7582 S   0  0  0  0  0  0  0  0  0  0  0  0
   23.1727   -3.2964  -24.8787 O   0  0  0  0  0  0  0  0  0  0  0  0
   23.4793   -3.1519  -23.4795 C   0  0  0  0  0  0  0  0  0  0  0  0
   23.0269   -4.2856  -22.6642 N   0  0  0  0  0  0  0  0  0  0  0  0
   23.6630   -5.5159  -23.1229 C   0  0  0  0  0  0  0  0  0  0  0  0
   23.2023   -6.6363  -22.3075 N   0  0  0  0  0  0  0  0  0  0  0  0
   23.8194   -7.8179  -22.7727 N   0  0  0  0  0  0  0  0  0  0  0  0
   23.3566   -8.9251  -22.0003 N   0  0  0  0  0  0  0  0  0  0  0  0
   23.9910  -10.1204  -22.4421 N   0  0  0  0  0  0  0  0  0  0  0  0
   25.4133  -10.0168  -22.3121 N   0  0  0  0  0  0  0  0  0  0  0  0
   25.7641   -9.7822  -20.9472 N   0  0  0  0  0  0  0  0  0  0  0  0
   25.3056  -10.8651  -20.1414 N   0  0  0  0  0  0  0  0  0  0  0  0
   25.9045  -12.0805  -20.5874 N   0  0  0  0  0  0  0  0  0  0  0  0
   27.3240  -11.9788  -20.4885 N   0  0  0  0  0  0  0  0  0  0  0  0
   27.6891  -11.7214  -19.1324 N   0  0  0  0  0  0  0  0  0  0  0  0
   27.2064  -12.7814  -18.3242 N   0  0  0  0  0  0  0  0  0  0  0  0
   27.7868  -13.9934  -18.7742 N   0  0  0  0  0  0  0  0  0  0  0  0
   29.2073  -13.9182  -18.6734 N   0  0  0  0  0  0  0  0  0  0  0  0
   29.6040  -13.6775  -17.3295 N   0  0  0  0  0  0  0  0  0  0  0  0
   29.1582  -14.7293  -16.4844 N   0  0  0  0  0  0  0  0  0  0  0  0
   29.7214  -15.9692  -16.8995 N   0  0  0  0  0  0  0  0  0  0  0  0
   31.1500  -15.9058  -16.8323 N   0  0  0  0  0  0  0  0  0  0  0  0
   31.5533  -15.6147  -15.4827 N   0  0  0  0  0  0  0  0  0  0  0  0
   31.0612  -16.6616  -14.6295 N   0  0  0  0  0  0  0  0  0  0  0  0
   31.6231  -17.9305  -15.0571 N   0  0  0  0  0  0  0  0  0  0  0  0
   33.0642  -17.8679  -15.0055 N   0  0  0  0  0  0  0  0  0  0  0  0
   33.4845  -17.5822  -13.6639 N   0  0  0  0  0  0  0  0  0  0  0  0
   33.0076  -18.6076  -12.7912 N   0  0  0  0  0  0  0  0  0  0  0  0
   33.5243  -19.8624  -13.2206 N   0  0  0  0  0  0  0  0  0  0  0  0
   34.9412  -19.7984  -13.1881 N   0  0  0  0  0  0  0  0  0  0  0  0
   35.3816  -19.5253  -11.8579 N   0  0  0  0  0  0  0  0  0  0  0  0
   34.9211  -20.5296  -10.9759 N   0  0  0  0  0  0  0  0  0  0  0  0
   35.4286  -21.7884  -11.3616 N   0  0  0  0  0  0  0  0  0  0  0  0
   36.8431  -21.7721  -11.3444 N   0  0  0  0  0  0  0  0  0  0  0  0
   37.2984  -21.4593  -10.0343 N   0  0  0  0  0  0  0  0  0  0  0  0
   36.8367  -22.4616   -9.1120 N   0  0  0  0  0  0  0  0  0  0  0  0
   37.3347  -23.7559   -9.4892 N   0  0  0  0  0  0  0  0  0  0  0  0
   38.7699  -23.7567   -9.4869 N   0  0  0  0  0  0  0  0  0  0  0  0
   39.2512  -23.4249   -8.1713 N   0  0  0  0  0  0  0  0  0  0  0  0
   38.7314  -24.3911   -7.2620 N   0  0  0  0  0  0  0  0  0  0  0  0
   39.2054  -25.6790   -7.6657 N   0  0  0  0  0  0  0  0  0  0  0  0
   40.6372  -25.6694   -7.6770 N   0  0  0  0  0  0  0  0  0  0  0  0
   41.1237  -25.3381   -6.3710 N   0  0  0  0  0  0  0  0  0  0  0  0
   40.6381  -26.3057   -5.4292 N   0  0  0  0  0  0  0  0  0  0  0  0
   41.1005  -27.6063   -5.8054 N   0  0  0  0  0  0  0  0  0  0  0  0
   42.5232  -27.6289   -5.8234 N   0  0  0  0  0  0  0  0  0  0  0  0
   43.0425  -27.3026   -4.5292 N   0  0  0  0  0  0  0  0  0  0  0  0
   42.5800  -28.2590   -3.5586 N   0  0  0  0  0  0  0  0  0  0  0  0
   43.0284  -29.5796   -3.9051 N   0  0  0  0  0  0  0  0  0  0  0  0
   44.4613  -29.6197   -3.9525 N   0  0  0  0  0  0  0  0  0  0  0  0
   44.9707  -29.2507   -2.6770 N   0  0  0  0  0  0  0  0  0  0  0  0
   44.4902  -30.1786   -1.7183 N   0  0  0  0  0  0  0  0  0  0  0  0
   44.8970  -31.4936   -2.0784 N   0  0  0  0  0  0  0  0  0  0  0  0
   46.3132  -31.5408   -2.1289 N   0  0  0  0  0  0  0  0  0  0  0  0
   46.8537  -31.2033   -0.8620 N   0  0  0  0  0  0  0  0  0  0  0  0
   46.3773  -32.1093    0.1256 N   0  0  0  0  0  0  0  0  0  0  0  0
   46.7866  -33.4448   -0.2052 N   0  0  0  0  0  0  0  0  0  0  0  0
   48.2111  -33.5175   -0.2866 N   0  0  0  0  0  0  0  0  0  0  0  0
   48.7765  -33.1672    0.9874 N   0  0  0  0  0  0  0  0  0  0  0  0
   48.2694  -34.0621    1.9868 N   0  0  0  0  0  0  0  0  0  0  0  0
   48.6446  -35.4000    1.6248 N   0  0  0  0  0  0  0  0  0  0  0  0
   50.0819  -35.4788    1.5439 N   0  0  0  0  0  0  0  0  0  0  0  0
   50.6511  -35.1115    2.8163 N   0  0  0  0  0  0  0  0  0  0  0  0
   50.1707  -36.0112    3.8426 N   0  0  0  0  0  0  0  0  0  0  0  0
   50.5372  -37.3618    3.5159 N   0  0  0  0  0  0  0  0  0  0  0  0
   51.9552  -37.4493    3.4155 N   0  0  0  0  0  0  0  0  0  0  0  0
   52.5458  -37.0976    4.6719 N   0  0  0  0  0  0  0  0  0  0  0  0
   52.0686  -37.9584    5.7011 N   0  0  0  0  0  0  0  0  0  0  0  0
   52.4169  -39.3005    5.3893 N   0  0  0  0  0  0  0  0  0  0  0  0
   53.8236  -39.4103    5.2805 N   0  0  0  0  0  0  0  0  0  0  0  0
   54.4195  -39.0211    6.5030 N   0  0  0  0  0  0  0  0  0  0  0  0
   53.9457  -39.8722    7.5461 N   0  0  0  0  0  0  0  0  0  0  0  0
   54.2821  -41.2366    7.2579 N   0  0  0  0  0  0  0  0  0  0  0  0
   55.7114  -41.3842    7.1326 N   0  0  0  0  0  0  0  0  0  0  0  0
   56.3221  -40.9692    8.3638 N   0  0  0  0  0  0  0  0  0  0  0  0
   55.8320  -41.8099    9.4378 N   0  0  0  0  0  0  0  0  0  0  0  0
   56.1511  -43.1973    9.1429 N   0  0  0  0  0  0  0  0  0  0  0  0
   57.5856  -43.3433    9.0183 N   0  0  0  0  0  0  0  0  0  0  0  0
   58.2259  -42.9463   10.2459 N   0  0  0  0  0  0  0  0  0  0  0  0
   57.7478  -43.7563   11.3238 N   0  0  0  0  0  0  0  0  0  0  0  0
   58.0347  -45.1343   11.0594 N   0  0  0  0  0  0  0  0  0  0  0  0
   23.3778   -2.2312  -27.0366 H   0  0  0  0  0  0  0  0  0  0  0  0
   23.0019   -2.2350  -23.1062 H   0  0  0  0  0  0  0  0  0  0  0  0
   24.5656   -3.0311  -23.3577 H   0  0  0  0  0  0  0  0  0  0  0  0
   22.0170   -4.3706  -22.7673 H   0  0  0  0  0  0  0  0  0  0  0  0
   24.7516   -5.4146  -23.0280 H   0  0  0  0  0  0  0  0  0  0  0  0
   23.4242   -5.6903  -24.1782 H   0  0  0  0  0  0  0  0  0  0  0  0
   22.1947   -6.7351  -22.4168 H   0  0  0  0  0  0  0  0  0  0  0  0
   24.8372   -7.7394  -22.6702 H   0  0  0  0  0  0  0  0  0  0  0  0
   22.3346   -9.0009  -22.0806 H   0  0  0  0  0  0  0  0  0  0  0  0
   23.7667  -10.2948  -23.4175 H   0  0  0  0  0  0  0  0  0  0  0  0
   25.7540   -9.2405  -22.8723 H   0  0  0  0  0  0  0  0  0  0  0  0
   25.3268   -8.9253  -20.6204 H   0  0  0  0  0  0  0  0  0  0  0  0
   24.2982  -10.9574  -20.2237 H   0  0  0  0  0  0  0  0  0  0  0  0
   25.6624  -12.2495  -21.5585 H   0  0  0  0  0  0  0  0  0  0  0  0
   27.6572  -11.2094  -21.0558 H   0  0  0  0  0  0  0  0  0  0  0  0
   27.2650  -10.8500  -18.8195 H   0  0  0  0  0  0  0  0  0  0  0  0
   26.1912  -12.8606  -18.3827 H   0  0  0  0  0  0  0  0  0  0  0  0
   27.5473  -14.1970  -19.7431 H   0  0  0  0  0  0  0  0  0  0  0  0
   29.5719  -13.1645  -19.2477 H   0  0  0  0  0  0  0  0  0  0  0  0
   29.2022  -12.8108  -16.9905 H   0  0  0  0  0  0  0  0  0  0  0  0
   28.1475  -14.8110  -16.5346 H   0  0  0  0  0  0  0  0  0  0  0  0
   29.4528  -16.1442  -17.8659 H   0  0  0  0  0  0  0  0  0  0  0  0
   31.4532  -15.1418  -17.4409 H   0  0  0  0  0  0  0  0  0  0  0  0
   31.1150  -14.7190  -15.2207 H   0  0  0  0  0  0  0  0  0  0  0  0
   30.0339  -16.6824  -14.7205 H   0  0  0  0  0  0  0  0  0  0  0  0
   31.3364  -18.0888  -16.0294 H   0  0  0  0  0  0  0  0  0  0  0  0
   33.3789  -17.1159  -15.6194 H   0  0  0  0  0  0  0  0  0  0  0  0
   33.0802  -16.6945  -13.3794 H   0  0  0  0  0  0  0  0  0  0  0  0
   31.9972  -18.6512  -12.8428 H   0  0  0  0  0  0  0  0  0  0  0  0
   33.2209  -20.0544  -14.1766 H   0  0  0  0  0  0  0  0  0  0  0  0
   35.2828  -19.0661  -13.8195 H   0  0  0  0  0  0  0  0  0  0  0  0
   35.0059  -18.6295  -11.5468 H   0  0  0  0  0  0  0  0  0  0  0  0
   33.9090  -20.5766  -10.9879 H   0  0  0  0  0  0  0  0  0  0  0  0
   35.1333  -22.0175  -12.3010 H   0  0  0  0  0  0  0  0  0  0  0  0
   37.1828  -21.0506  -11.9751 H   0  0  0  0  0  0  0  0  0  0  0  0
   36.9121  -20.5418   -9.7654 H   0  0  0  0  0  0  0  0  0  0  0  0
   35.8032  -22.4617   -9.1644 H   0  0  0  0  0  0  0  0  0  0  0  0
   36.9947  -23.9341  -10.4424 H   0  0  0  0  0  0  0  0  0  0  0  0
   39.0536  -23.0261  -10.1488 H   0  0  0  0  0  0  0  0  0  0  0  0
   38.8587  -22.4964   -7.9527 H   0  0  0  0  0  0  0  0  0  0  0  0
   37.7046  -24.3680   -7.3105 H   0  0  0  0  0  0  0  0  0  0  0  0
   38.8805  -25.8847   -8.6115 H   0  0  0  0  0  0  0  0  0  0  0  0
   40.9731  -24.9654   -8.3267 H   0  0  0  0  0  0  0  0  0  0  0  0
   40.7866  -24.4181   -6.0978 H   0  0  0  0  0  0  0  0  0  0  0  0
   39.6176  -26.3111   -5.4228 H   0  0  0  0  0  0  0  0  0  0  0  0
   40.7831  -27.8579   -6.7359 H   0  0  0  0  0  0  0  0  0  0  0  0
   42.8916  -26.9478   -6.4821 H   0  0  0  0  0  0  0  0  0  0  0  0
   42.7193  -26.3616   -4.2673 H   0  0  0  0  0  0  0  0  0  0  0  0
   41.5493  -28.2382   -3.5640 H   0  0  0  0  0  0  0  0  0  0  0  0
   42.6637  -29.7895   -4.8372 H   0  0  0  0  0  0  0  0  0  0  0  0
   44.7547  -28.9276   -4.6555 H   0  0  0  0  0  0  0  0  0  0  0  0
   44.6321  -28.3078   -2.4521 H   0  0  0  0  0  0  0  0  0  0  0  0
   43.4727  -30.1650   -1.7115 H   0  0  0  0  0  0  0  0  0  0  0  0
   44.5097  -31.7247   -3.0014 H   0  0  0  0  0  0  0  0  0  0  0  0
   46.6497  -30.8708   -2.8208 H   0  0  0  0  0  0  0  0  0  0  0  0
   46.5467  -30.2717   -0.6006 H   0  0  0  0  0  0  0  0  0  0  0  0
   45.3502  -32.0534    0.1470 H   0  0  0  0  0  0  0  0  0  0  0  0
   46.4047  -33.6689   -1.1261 H   0  0  0  0  0  0  0  0  0  0  0  0
   48.5200  -32.8496   -1.0083 H   0  0  0  0  0  0  0  0  0  0  0  0
   48.4553  -32.2161    1.2059 H   0  0  0  0  0  0  0  0  0  0  0  0
   47.2465  -33.9886    1.9906 H   0  0  0  0  0  0  0  0  0  0  0  0
   48.2524  -35.6058    0.7007 H   0  0  0  0  0  0  0  0  0  0  0  0
   50.4098  -34.8191    0.8328 H   0  0  0  0  0  0  0  0  0  0  0  0
   50.3638  -34.1583    3.0514 H   0  0  0  0  0  0  0  0  0  0  0  0
   49.1523  -35.9427    3.8970 H   0  0  0  0  0  0  0  0  0  0  0  0
   50.1400  -37.6165    2.6137 H   0  0  0  0  0  0  0  0  0  0  0  0
   52.3004  -36.8233    2.6813 H   0  0  0  0  0  0  0  0  0  0  0  0
   52.2890  -36.1429    4.9189 H   0  0  0  0  0  0  0  0  0  0  0  0
   51.0461  -37.8679    5.7708 H   0  0  0  0  0  0  0  0  0  0  0  0
   51.9872  -39.5667    4.4965 H   0  0  0  0  0  0  0  0  0  0  0  0
   54.1649  -38.7832    4.5552 H   0  0  0  0  0  0  0  0  0  0  0  0
   54.1633  -38.0448    6.7040 H   0  0  0  0  0  0  0  0  0  0  0  0
   52.9225  -39.7787    7.6124 H   0  0  0  0  0  0  0  0  0  0  0  0
   53.8570  -41.4935    6.3646 H   0  0  0  0  0  0  0  0  0  0  0  0
   56.0054  -40.7459    6.3808 H   0  0  0  0  0  0  0  0  0  0  0  0
   56.0510  -39.9922    8.5346 H   0  0  0  0  0  0  0  0  0  0  0  0
   54.8050  -41.6935    9.4819 H   0  0  0  0  0  0  0  0  0  0  0  0
   55.6931  -43.4455    8.2468 H   0  0  0  0  0  0  0  0  0  0  0  0
   57.9104  -42.7346    8.2585 H   0  0  0  0  0  0  0  0  0  0  0  0
   57.9846  -41.9653   10.4302 H   0  0  0  0  0  0  0  0  0  0  0  0
   56.7326  -43.6393   11.3969 H   0  0  0  0  0  0  0  0  0  0  0  0
   59.0422  -45.2167   10.9249 H   0  0  0  0  0  0  0  0  0  0  0  0
   57.5956  -45.3908   10.1687 H   0  0  0  0  0  0  0  0  0  0  0  0
  1  2  1  0  0  0  0
  1 82  1  0  0  0  0
  2  3  1  0  0  0  0
  3  4  1  0  0  0  0
  3 83  1  0  0  0  0
  3 84  1  0  0  0  0
  4  5  1  0  0  0  0
  4 85  1  0  0  0  0
  5  6  1  0  0  0  0
  5 86  1  0  0  0  0
  5 87  1  0  0  0  0
  6  7  1  0  0  0  0
  6 88  1  0  0  0  0
  7  8  1  0  0  0  0
  7 89  1  0  0  0  0
  8  9  1  0  0  0  0
  8 90  1  0  0  0  0
  9 10  1  0  0  0  0
  9 91  1  0  0  0  0
 10 11  1  0  0  0  0
 10 92  1  0  0  0  0
 11 12  1  0  0  0  0
 11 93  1  0  0  0  0
 12 13  1  0  0  0  0
 12 94  1  0  0  0  0
 13 14  1  0  0  0  0
 13 95  1  0  0  0  0
 14 15  1  0  0  0  0
 14 96  1  0  0  0  0
 15 16  1  0  0  0  0
 15 97  1  0  0  0  0
 16 17  1  0  0  0  0
 16 98  1  0  0  0  0
 17 18  1  0  0  0  0
 17 99  1  0  0  0  0
 18 19  1  0  0  0  0
 18100  1  0  0  0  0
 19 20  1  0  0  0  0
 19101  1  0  0  0  0
 20 21  1  0  0  0  0
 20102  1  0  0  0  0
 21 22  1  0  0  0  0
 21103  1  0  0  0  0
 22 23  1  0  0  0  0
 22104  1  0  0  0  0
 23 24  1  0  0  0  0
 23105  1  0  0  0  0
 24 25  1  0  0  0  0
 24106  1  0  0  0  0
 25 26  1  0  0  0  0
 25107  1  0  0  0  0
 26 27  1  0  0  0  0
 26108  1  0  0  0  0
 27 28  1  0  0  0  0
 27109  1  0  0  0  0
 28 29  1  0  0  0  0
 28110  1  0  0  0  0
 29 30  1  0  0  0  0
 29111  1  0  0  0  0
 30 31  1  0  0  0  0
 30112  1  0  0  0  0
 31 32  1  0  0  0  0
 31113  1  0  0  0  0
 32 33  1  0  0  0  0
 32114  1  0  0  0  0
 33 34  1  0  0  0  0
 33115  1  0  0  0  0
 34 35  1  0  0  0  0
 34116  1  0  0  0  0
 35 36  1  0  0  0  0
 35117  1  0  0  0  0
 36 37  1  0  0  0  0
 36118  1  0  0  0  0
 37 38  1  0  0  0  0
 37119  1  0  0  0  0
 38 39  1  0  0  0  0
 38120  1  0  0  0  0
 39 40  1  0  0  0  0
 39121  1  0  0  0  0
 40 41  1  0  0  0  0
 40122  1  0  0  0  0
 41 42  1  0  0  0  0
 41123  1  0  0  0  0
 42 43  1  0  0  0  0
 42124  1  0  0  0  0
 43 44  1  0  0  0  0
 43125  1  0  0  0  0
 44 45  1  0  0  0  0
 44126  1  0  0  0  0
 45 46  1  0  0  0  0
 45127  1  0  0  0  0
 46 47  1  0  0  0  0
 46128  1  0  0  0  0
 47 48  1  0  0  0  0
 47129  1  0  0  0  0
 48 49  1  0  0  0  0
 48130  1  0  0  0  0
 49 50  1  0  0  0  0
 49131  1  0  0  0  0
 50 51  1  0  0  0  0
 50132  1  0  0  0  0
 51 52  1  0  0  0  0
 51133  1  0  0  0  0
 52 53  1  0  0  0  0
 52134  1  0  0  0  0
 53 54  1  0  0  0  0
 53135  1  0  0  0  0
 54 55  1  0  0  0  0
 54136  1  0  0  0  0
 55 56  1  0  0  0  0
 55137  1  0  0  0  0
 56 57  1  0  0  0  0
 56138  1  0  0  0  0
 57 58  1  0  0  0  0
 57139  1  0  0  0  0
 58 59  1  0  0  0  0
 58140  1  0  0  0  0
 59 60  1  0  0  0  0
 59141  1  0  0  0  0
 60 61  1  0  0  0  0
 60142  1  0  0  0  0
 61 62  1  0  0  0  0
 61143  1  0  0  0  0
 62 63  1  0  0  0  0
 62144  1  0  0  0  0
 63 64  1  0  0  0  0
 63145  1  0  0  0  0
 64 65  1  0  0  0  0
 64146  1  0  0  0  0
 65 66  1  0  0  0  0
 65147  1  0  0  0  0
 66 67  1  0  0  0  0
 66148  1  0  0  0  0
 67 68  1  0  0  0  0
 67149  1  0  0  0  0
 68 69  1  0  0  0  0
 68150  1  0  0  0  0
 69 70  1  0  0  0  0
 69151  1  0  0  0  0
 70 71  1  0  0  0  0
 70152  1  0  0  0  0
 71 72  1  0  0  0  0
 71153  1  0  0  0  0
 72 73  1  0  0  0  0
 72154  1  0  0  0  0
 73 74  1  0  0  0  0
 73155  1  0  0  0  0
 74 75  1  0  0  0  0
 74156  1  0  0  0  0
 75 76  1  0  0  0  0
 75157  1  0  0  0  0
 76 77  1  0  0  0  0
 76158  1  0  0  0  0
 77 78  1  0  0  0  0
 77159  1  0  0  0  0
 78 79  1  0  0  0  0
 78160  1  0  0  0  0
 79 80  1  0  0  0  0
 79161  1  0  0  0  0
 80 81  1  0  0  0  0
 80162  1  0  0  0  0
 81163  1  0  0  0  0
 81164  1  0  0  0  0
M  END
$$$$
