
 OpenBabel04232216453D

 39 40  0  0  0  0  0  0  0  0999 V2000
    2.0177   -0.1296    0.0679 C   0  0  0  0  0  0  0  0  0  0  0  0
    3.2945   -0.8813    0.3952 C   0  0  0  0  0  0  0  0  0  0  0  0
    4.0484   -0.5083    1.4466 C   0  0  0  0  0  0  0  0  0  0  0  0
    5.2560   -1.2979    1.8015 C   0  0  0  0  0  0  0  0  0  0  0  0
    4.7328   -2.3027    2.8769 C   0  0  0  0  0  0  0  0  0  0  0  0
    5.9145   -1.8545    0.7392 C   0  0  0  0  0  0  0  0  0  0  0  0
    6.9555   -1.3303   -0.1629 C   0  0  0  0  0  0  0  0  0  0  0  0
    7.8892   -0.5642    0.4627 F   0  0  0  0  0  0  0  0  0  0  0  0
    7.2870   -1.9161   -1.3786 C   0  0  0  0  0  0  0  0  0  0  0  0
    6.2603   -2.6322   -2.3151 C   0  0  0  0  0  0  0  0  0  0  0  0
    6.4702   -3.6875   -3.4122 C   0  0  0  0  0  0  0  0  0  0  0  0
    8.7404   -2.2032   -1.5255 C   0  0  0  0  0  0  0  0  0  0  0  0
    9.1359   -3.4966   -1.5545 C   0  0  0  0  0  0  0  0  0  0  0  0
    9.2088   -4.3896   -0.3617 C   0  0  0  0  0  0  0  0  0  0  0  0
    8.1048   -4.9269    0.2328 C   0  0  0  0  0  0  0  0  0  0  0  0
    8.3057   -6.1953    1.0137 C   0  0  0  0  0  0  0  0  0  0  0  0
    6.8259   -4.5606   -0.1238 N   0  0  0  0  0  0  0  0  0  0  0  0
    5.9991   -4.2304    0.7616 N   0  0  0  0  0  0  0  0  0  0  0  0
    5.3625   -3.0618    0.3164 N   0  0  0  0  0  0  0  0  0  0  0  0
    3.9738   -3.0600    0.0327 N   0  0  0  0  0  0  0  0  0  0  0  0
    3.5936   -1.9418   -0.4612 N   0  0  0  0  0  0  0  0  0  0  0  0
    1.2042   -0.8290   -0.1611 H   0  0  0  0  0  0  0  0  0  0  0  0
    2.1560    0.5215   -0.8072 H   0  0  0  0  0  0  0  0  0  0  0  0
    1.6774    0.5009    0.9008 H   0  0  0  0  0  0  0  0  0  0  0  0
    3.7099    0.2313    2.1576 H   0  0  0  0  0  0  0  0  0  0  0  0
    3.9785   -1.8806    3.5500 H   0  0  0  0  0  0  0  0  0  0  0  0
    5.5656   -2.6924    3.4696 H   0  0  0  0  0  0  0  0  0  0  0  0
    4.2301   -3.1740    2.4318 H   0  0  0  0  0  0  0  0  0  0  0  0
    5.6047   -1.8543   -2.7215 H   0  0  0  0  0  0  0  0  0  0  0  0
    5.6064   -3.2347   -1.7139 H   0  0  0  0  0  0  0  0  0  0  0  0
    6.8750   -3.2801   -4.3368 H   0  0  0  0  0  0  0  0  0  0  0  0
    5.4791   -4.1090   -3.6492 H   0  0  0  0  0  0  0  0  0  0  0  0
    7.0350   -4.5666   -3.0937 H   0  0  0  0  0  0  0  0  0  0  0  0
    9.3364   -1.5759   -0.8565 H   0  0  0  0  0  0  0  0  0  0  0  0
    8.7250   -4.1191   -2.3434 H   0  0  0  0  0  0  0  0  0  0  0  0
   10.1905   -4.7433   -0.1477 H   0  0  0  0  0  0  0  0  0  0  0  0
    7.3674   -6.7568    1.0980 H   0  0  0  0  0  0  0  0  0  0  0  0
    8.7058   -6.0067    2.0113 H   0  0  0  0  0  0  0  0  0  0  0  0
    9.0039   -6.8518    0.4749 H   0  0  0  0  0  0  0  0  0  0  0  0
  1  2  1  0  0  0  0
  1 22  1  0  0  0  0
  1 23  1  0  0  0  0
  1 24  1  0  0  0  0
  2  3  2  0  0  0  0
  2 21  1  0  0  0  0
  3  4  1  0  0  0  0
  3 25  1  0  0  0  0
  4  5  1  0  0  0  0
  4  6  2  0  0  0  0
  5 26  1  0  0  0  0
  5 27  1  0  0  0  0
  5 28  1  0  0  0  0
  6  7  1  0  0  0  0
  6 19  1  0  0  0  0
  7  8  1  0  0  0  0
  7  9  2  3  0  0  0
  9 10  1  0  0  0  0
  9 12  1  0  0  0  0
 10 11  1  0  0  0  0
 10 29  1  0  0  0  0
 10 30  1  0  0  0  0
 11 31  1  0  0  0  0
 11 32  1  0  0  0  0
 11 33  1  0  0  0  0
 12 13  2  3  0  0  0
 12 34  1  0  0  0  0
 13 14  1  0  0  0  0
 13 35  1  0  0  0  0
 14 15  2  3  0  0  0
 14 36  1  0  0  0  0
 15 16  1  0  0  0  0
 15 17  1  0  0  0  0
 16 37  1  0  0  0  0
 16 38  1  0  0  0  0
 16 39  1  0  0  0  0
 17 18  2  3  0  0  0
 18 19  1  0  0  0  0
 19 20  1  0  0  0  0
 20 21  2  0  0  0  0
M  END
$$$$
