
 OpenBabel04232216473D

 49 50  0  0  0  0  0  0  0  0999 V2000
    6.7730    0.1020    0.3595 C   0  0  0  0  0  0  0  0  0  0  0  0
    7.1093   -1.0128   -0.6601 C   0  0  0  0  0  0  0  0  0  0  0  0
    5.8505   -1.3319   -1.1346 C   0  0  0  0  0  0  0  0  0  0  0  0
    5.1012   -2.5923   -1.1383 C   0  0  0  0  0  0  0  0  0  0  0  0
    5.1888   -3.3923   -2.1578 C   0  0  0  0  0  0  0  0  0  0  0  0
    3.9237   -3.6532   -2.9004 C   0  0  0  0  0  0  0  0  0  0  0  0
    3.7571   -4.7020   -3.7113 C   0  0  0  0  0  0  0  0  0  0  0  0
    6.4332   -3.3466   -2.9251 C   0  0  0  0  0  0  0  0  0  0  0  0
    6.5020   -3.3440   -4.4197 C   0  0  0  0  0  0  0  0  0  0  0  0
    7.7702   -2.5869   -4.6861 C   0  0  0  0  0  0  0  0  0  0  0  0
    7.8094   -1.3945   -4.9542 O   0  0  0  0  0  0  0  0  0  0  0  0
    8.8750   -3.3417   -4.3906 N   0  0  0  0  0  0  0  0  0  0  0  0
    9.9746   -3.0330   -5.1509 C   0  0  0  0  0  0  0  0  0  0  0  0
   11.1178   -2.5147   -4.6091 C   0  0  0  0  0  0  0  0  0  0  0  0
   11.3870   -2.4352   -3.1277 C   0  0  0  0  0  0  0  0  0  0  0  0
   10.6212   -3.1253   -2.2533 C   0  0  0  0  0  0  0  0  0  0  0  0
   10.9079   -4.7432   -2.6744 C   0  0  0  0  0  0  0  0  0  0  0  0
   11.1087   -5.5168   -1.7187 O   0  0  0  0  0  0  0  0  0  0  0  0
   11.4751   -5.3464   -4.2156 C   0  0  0  0  0  0  0  0  0  0  0  0
   10.8844   -5.7537   -5.6518 C   0  0  0  0  0  0  0  0  0  0  0  0
    9.6862   -5.1120   -6.3615 C   0  0  0  0  0  0  0  0  0  0  0  0
    9.8504   -3.6006   -6.5082 C   0  0  0  0  0  0  0  0  0  0  0  0
    9.2127   -2.3878   -1.7762 C   0  0  0  0  0  0  0  0  0  0  0  0
    8.5034   -1.8369   -0.6910 C   0  0  0  0  0  0  0  0  0  0  0  0
    5.6724    0.2913    0.4282 H   0  0  0  0  0  0  0  0  0  0  0  0
    7.1709    1.0829    0.1081 H   0  0  0  0  0  0  0  0  0  0  0  0
    6.9864   -0.1990    1.3886 H   0  0  0  0  0  0  0  0  0  0  0  0
    5.1190   -0.5171   -1.2869 H   0  0  0  0  0  0  0  0  0  0  0  0
    5.0218   -3.0026   -0.1239 H   0  0  0  0  0  0  0  0  0  0  0  0
    3.1522   -2.8791   -2.8472 H   0  0  0  0  0  0  0  0  0  0  0  0
    4.5124   -5.4741   -3.7800 H   0  0  0  0  0  0  0  0  0  0  0  0
    2.8741   -4.7857   -4.3240 H   0  0  0  0  0  0  0  0  0  0  0  0
    7.1189   -4.0642   -2.4601 H   0  0  0  0  0  0  0  0  0  0  0  0
    6.8716   -2.3775   -2.7149 H   0  0  0  0  0  0  0  0  0  0  0  0
    5.7049   -2.7922   -4.9166 H   0  0  0  0  0  0  0  0  0  0  0  0
    6.5694   -4.3593   -4.8125 H   0  0  0  0  0  0  0  0  0  0  0  0
    8.6607   -4.3278   -4.2429 H   0  0  0  0  0  0  0  0  0  0  0  0
   11.9598   -2.3486   -5.2360 H   0  0  0  0  0  0  0  0  0  0  0  0
   12.4596   -2.7121   -3.0781 H   0  0  0  0  0  0  0  0  0  0  0  0
   12.4248   -4.8314   -4.4295 H   0  0  0  0  0  0  0  0  0  0  0  0
   11.8501   -6.3457   -3.9153 H   0  0  0  0  0  0  0  0  0  0  0  0
   10.7261   -6.8412   -5.7011 H   0  0  0  0  0  0  0  0  0  0  0  0
   11.7127   -5.6100   -6.3749 H   0  0  0  0  0  0  0  0  0  0  0  0
    8.7580   -5.4122   -5.8560 H   0  0  0  0  0  0  0  0  0  0  0  0
    9.5776   -5.5316   -7.3722 H   0  0  0  0  0  0  0  0  0  0  0  0
   10.7043   -3.3568   -7.1472 H   0  0  0  0  0  0  0  0  0  0  0  0
    8.9543   -3.1719   -6.9921 H   0  0  0  0  0  0  0  0  0  0  0  0
    9.2143   -1.5555   -2.4999 H   0  0  0  0  0  0  0  0  0  0  0  0
    9.1415   -1.4094    0.0899 H   0  0  0  0  0  0  0  0  0  0  0  0
  1  2  1  0  0  0  0
  1 25  1  0  0  0  0
  1 26  1  0  0  0  0
  1 27  1  0  0  0  0
  2  3  2  3  0  0  0
  2 24  1  0  0  0  0
  3  4  1  0  0  0  0
  3 28  1  0  0  0  0
  4  5  2  3  0  0  0
  4 29  1  0  0  0  0
  5  6  1  0  0  0  0
  5  8  1  0  0  0  0
  6  7  2  0  0  0  0
  6 30  1  0  0  0  0
  7 31  1  0  0  0  0
  7 32  1  0  0  0  0
  8  9  1  0  0  0  0
  8 33  1  0  0  0  0
  8 34  1  0  0  0  0
  9 10  1  0  0  0  0
  9 35  1  0  0  0  0
  9 36  1  0  0  0  0
 10 11  2  0  0  0  0
 10 12  1  0  0  0  0
 12 13  1  0  0  0  0
 12 37  1  0  0  0  0
 13 14  2  3  0  0  0
 13 22  1  0  0  0  0
 14 15  1  0  0  0  0
 14 38  1  0  0  0  0
 15 16  2  3  0  0  0
 15 39  1  0  0  0  0
 16 17  1  0  0  0  0
 16 23  1  0  0  0  0
 17 18  2  0  0  0  0
 17 19  1  0  0  0  0
 19 20  1  0  0  0  0
 19 40  1  0  0  0  0
 19 41  1  0  0  0  0
 20 21  1  0  0  0  0
 20 42  1  0  0  0  0
 20 43  1  0  0  0  0
 21 22  1  0  0  0  0
 21 44  1  0  0  0  0
 21 45  1  0  0  0  0
 22 46  1  0  0  0  0
 22 47  1  0  0  0  0
 23 24  2  3  0  0  0
 23 48  1  0  0  0  0
 24 49  1  0  0  0  0
M  END
$$$$
