
 OpenBabel04232216463D

 58 59  0  0  1  0  0  0  0  0999 V2000
    6.5736   -1.1950   -2.0827 C   0  0  0  0  0  0  0  0  0  0  0  0
    7.5270   -2.5933   -1.7131 C   0  0  3  0  0  0  0  0  0  0  0  0
    6.5025   -2.8504   -0.6925 C   0  0  0  0  0  0  0  0  0  0  0  0
    6.4242   -2.6407    0.6219 C   0  0  0  0  0  0  0  0  0  0  0  0
    6.7159   -1.2810    1.2207 C   0  0  0  0  0  0  0  0  0  0  0  0
    5.9703   -3.7377    1.3340 N   0  0  0  0  0  0  0  0  0  0  0  0
    5.8783   -4.7818    0.5590 C   0  0  0  0  0  0  0  0  0  0  0  0
    5.8557   -6.1810    0.8871 C   0  0  0  0  0  0  0  0  0  0  0  0
    7.1314   -6.4733    1.0580 C   0  0  0  0  0  0  0  0  0  0  0  0
    7.5850   -7.7602    0.6470 C   0  0  0  0  0  0  0  0  0  0  0  0
    8.7770   -8.0767    1.1055 C   0  0  0  0  0  0  0  0  0  0  0  0
    9.5630   -8.8970    0.2575 C   0  0  0  0  0  0  0  0  0  0  0  0
    9.1318  -10.3048    0.0367 C   0  0  0  0  0  0  0  0  0  0  0  0
   10.6389   -8.3078   -0.2837 C   0  0  0  0  0  0  0  0  0  0  0  0
   10.7074   -6.7790   -0.2868 C   0  0  0  0  0  0  0  0  0  0  0  0
    9.8709   -5.9191   -1.1000 C   0  0  0  0  0  0  0  0  0  0  0  0
   10.1382   -4.4544   -1.1273 C   0  0  0  0  0  0  0  0  0  0  0  0
   11.9526   -4.5883   -0.9274 C   0  0  0  0  0  0  0  0  0  0  0  0
   13.1256   -6.0279   -1.2231 C   0  0  0  0  0  0  0  0  0  0  0  0
   13.6899   -7.0517   -0.1429 O   0  0  0  0  0  0  0  0  0  0  0  0
   14.5363   -8.2352   -0.7701 N   0  0  0  0  0  0  0  0  0  0  0  0
   14.8258   -9.4835    0.1260 C   0  0  0  0  0  0  0  0  0  0  0  0
   13.7194  -10.4809    0.5535 C   0  0  0  0  0  0  0  0  0  0  0  0
   12.4914   -9.6668    0.8889 C   0  0  0  0  0  0  0  0  0  0  0  0
   11.8020   -9.2686   -0.4572 C   0  0  0  0  0  0  0  0  0  0  0  0
    9.2254   -3.2492   -1.2636 C   0  0  0  0  0  0  0  0  0  0  0  0
    5.7675   -1.4977   -2.7984 H   0  0  0  0  0  0  0  0  0  0  0  0
    7.0323   -0.2796   -2.4392 H   0  0  0  0  0  0  0  0  0  0  0  0
    5.8674   -0.8365   -1.2715 H   0  0  0  0  0  0  0  0  0  0  0  0
    7.2981   -3.2187   -2.5881 H   0  0  0  0  0  0  0  0  0  0  0  0
    5.5058   -3.1282   -1.1069 H   0  0  0  0  0  0  0  0  0  0  0  0
    5.7726   -0.7691    1.4731 H   0  0  0  0  0  0  0  0  0  0  0  0
    7.1980   -0.6137    0.4895 H   0  0  0  0  0  0  0  0  0  0  0  0
    7.3558   -1.2887    2.1016 H   0  0  0  0  0  0  0  0  0  0  0  0
    6.0227   -4.7833   -0.5472 H   0  0  0  0  0  0  0  0  0  0  0  0
    5.2112   -6.8519    0.3166 H   0  0  0  0  0  0  0  0  0  0  0  0
    7.9234   -5.7019    1.1629 H   0  0  0  0  0  0  0  0  0  0  0  0
    7.1227   -8.2699   -0.1959 H   0  0  0  0  0  0  0  0  0  0  0  0
    9.2983   -7.4696    1.8661 H   0  0  0  0  0  0  0  0  0  0  0  0
    8.0443  -10.3774   -0.0094 H   0  0  0  0  0  0  0  0  0  0  0  0
    9.4793  -10.9835    0.8084 H   0  0  0  0  0  0  0  0  0  0  0  0
    9.4848  -10.6434   -0.9375 H   0  0  0  0  0  0  0  0  0  0  0  0
   11.2424   -6.3467    0.4685 H   0  0  0  0  0  0  0  0  0  0  0  0
    9.2349   -6.3472   -1.9268 H   0  0  0  0  0  0  0  0  0  0  0  0
   12.2140   -4.1899    0.0602 H   0  0  0  0  0  0  0  0  0  0  0  0
   12.2897   -3.8961   -1.7119 H   0  0  0  0  0  0  0  0  0  0  0  0
   14.0538   -5.5377   -1.5427 H   0  0  0  0  0  0  0  0  0  0  0  0
   12.7513   -6.6325   -2.0565 H   0  0  0  0  0  0  0  0  0  0  0  0
   15.4575   -7.8009   -0.8496 H   0  0  0  0  0  0  0  0  0  0  0  0
   15.3652   -9.1841    1.0337 H   0  0  0  0  0  0  0  0  0  0  0  0
   15.5484  -10.1311   -0.4109 H   0  0  0  0  0  0  0  0  0  0  0  0
   14.0435  -11.0864    1.4245 H   0  0  0  0  0  0  0  0  0  0  0  0
   13.4956  -11.2398   -0.2143 H   0  0  0  0  0  0  0  0  0  0  0  0
   12.8130   -8.8136    1.4984 H   0  0  0  0  0  0  0  0  0  0  0  0
   11.8312  -10.2607    1.5364 H   0  0  0  0  0  0  0  0  0  0  0  0
   11.4540  -10.2351   -0.8450 H   0  0  0  0  0  0  0  0  0  0  0  0
   12.4724   -8.9630   -1.2610 H   0  0  0  0  0  0  0  0  0  0  0  0
    9.7165   -2.3124   -0.9880 H   0  0  0  0  0  0  0  0  0  0  0  0
  1  2  1  0  0  0  0
  1 27  1  0  0  0  0
  1 28  1  0  0  0  0
  1 29  1  0  0  0  0
  2  3  1  0  0  0  0
  2 26  1  0  0  0  0
  2 30  1  0  0  0  0
  3  4  2  3  0  0  0
  3 31  1  0  0  0  0
  4  5  1  0  0  0  0
  4  6  1  0  0  0  0
  5 32  1  0  0  0  0
  5 33  1  0  0  0  0
  5 34  1  0  0  0  0
  6  7  2  3  0  0  0
  7  8  1  0  0  0  0
  7 35  1  0  0  0  0
  8  9  2  3  0  0  0
  8 36  1  0  0  0  0
  9 10  1  0  0  0  0
  9 37  1  0  0  0  0
 10 11  2  3  0  0  0
 10 38  1  0  0  0  0
 11 12  1  0  0  0  0
 11 39  1  0  0  0  0
 12 13  1  0  0  0  0
 12 14  2  3  0  0  0
 13 40  1  0  0  0  0
 13 41  1  0  0  0  0
 13 42  1  0  0  0  0
 14 15  1  0  0  0  0
 14 25  1  0  0  0  0
 15 16  2  3  0  0  0
 15 43  1  0  0  0  0
 16 17  1  0  0  0  0
 16 44  1  0  0  0  0
 17 18  1  0  0  0  0
 17 26  2  3  0  0  0
 18 19  1  0  0  0  0
 18 45  1  0  0  0  0
 18 46  1  0  0  0  0
 19 20  1  0  0  0  0
 19 47  1  0  0  0  0
 19 48  1  0  0  0  0
 20 21  1  0  0  0  0
 21 22  1  0  0  0  0
 21 49  1  0  0  0  0
 22 23  1  0  0  0  0
 22 50  1  0  0  0  0
 22 51  1  0  0  0  0
 23 24  1  0  0  0  0
 23 52  1  0  0  0  0
 23 53  1  0  0  0  0
 24 25  1  0  0  0  0
 24 54  1  0  0  0  0
 24 55  1  0  0  0  0
 25 56  1  0  0  0  0
 25 57  1  0  0  0  0
 26 58  1  0  0  0  0
M  END
$$$$
