
 OpenBabel04232216403D

181180  0  0  0  0  0  0  0  0999 V2000
    3.1745   10.1613    2.1415 C   0  0  0  0  0  0  0  0  0  0  0  0
    3.7621    9.2845    1.3176 C   0  0  0  0  0  0  0  0  0  0  0  0
    4.1578    7.9158    1.7718 C   0  0  0  0  0  0  0  0  0  0  0  0
    5.6527    7.7021    1.6082 C   0  0  0  0  0  0  0  0  0  0  0  0
    6.0372    6.3115    2.0760 C   0  0  0  0  0  0  0  0  0  0  0  0
    7.4785    6.1260    1.9027 N   0  0  0  0  0  0  0  0  0  0  0  0
    7.8083    4.8184    2.3439 N   0  0  0  0  0  0  0  0  0  0  0  0
    9.2135    4.6284    2.1889 N   0  0  0  0  0  0  0  0  0  0  0  0
    9.5981    3.3217    2.6257 N   0  0  0  0  0  0  0  0  0  0  0  0
   10.9953    3.1249    2.4675 N   0  0  0  0  0  0  0  0  0  0  0  0
   11.7204    4.0771    3.2404 N   0  0  0  0  0  0  0  0  0  0  0  0
   13.1007    3.8862    3.0674 N   0  0  0  0  0  0  0  0  0  0  0  0
   13.8050    4.8433    3.8354 N   0  0  0  0  0  0  0  0  0  0  0  0
   15.2009    4.6531    3.6785 N   0  0  0  0  0  0  0  0  0  0  0  0
   15.9182    5.6038    4.4411 N   0  0  0  0  0  0  0  0  0  0  0  0
   17.3104    5.4040    4.2755 N   0  0  0  0  0  0  0  0  0  0  0  0
   18.0150    6.3553    5.0455 N   0  0  0  0  0  0  0  0  0  0  0  0
   19.4223    6.1705    4.8835 N   0  0  0  0  0  0  0  0  0  0  0  0
   20.1351    7.1425    5.6569 N   0  0  0  0  0  0  0  0  0  0  0  0
   21.5672    6.9162    5.4815 C   0  0  0  0  0  0  0  0  0  0  0  0
   22.3277    7.9409    6.2979 C   0  0  0  0  0  0  0  0  0  0  0  0
   23.8208    7.7319    6.1311 C   0  0  0  0  0  0  0  0  0  0  0  0
   24.5865    8.7530    6.9471 C   0  0  0  0  0  0  0  0  0  0  0  0
   26.0771    8.5442    6.7783 C   0  0  0  0  0  0  0  0  0  0  0  0
   26.8416    9.5654    7.5944 C   0  0  0  0  0  0  0  0  0  0  0  0
   28.3318    9.3553    7.4272 C   0  0  0  0  0  0  0  0  0  0  0  0
   29.0960   10.3764    8.2432 C   0  0  0  0  0  0  0  0  0  0  0  0
   30.5862   10.1663    8.0760 C   0  0  0  0  0  0  0  0  0  0  0  0
   31.3505   11.1875    8.8920 C   0  0  0  0  0  0  0  0  0  0  0  0
   32.8407   10.9774    8.7248 C   0  0  0  0  0  0  0  0  0  0  0  0
   33.6052   11.9986    9.5409 C   0  0  0  0  0  0  0  0  0  0  0  0
   35.0960   11.7887    9.3738 C   0  0  0  0  0  0  0  0  0  0  0  0
   35.8613   12.8087   10.1914 C   0  0  0  0  0  0  0  0  0  0  0  0
   37.3529   12.6007   10.0263 C   0  0  0  0  0  0  0  0  0  0  0  0
   38.1041   13.6244   10.8534 C   0  0  0  0  0  0  0  0  0  0  0  0
   39.5054   13.3487   10.6899 N   0  0  0  0  0  0  0  0  0  0  0  0
   40.2553   14.3556   11.4535 N   0  0  0  0  0  0  0  0  0  0  0  0
   41.6562   14.1480   11.2928 N   0  0  0  0  0  0  0  0  0  0  0  0
   42.0166   14.2966    9.9176 N   0  0  0  0  0  0  0  0  0  0  0  0
   41.6543   15.6213    9.4658 N   0  0  0  0  0  0  0  0  0  0  0  0
   42.3667   16.5964   10.2491 N   0  0  0  0  0  0  0  0  0  0  0  0
   43.7862   16.3976   10.0949 N   0  0  0  0  0  0  0  0  0  0  0  0
   44.1528   16.5223    8.7239 N   0  0  0  0  0  0  0  0  0  0  0  0
   43.7970   17.8167    8.2570 N   0  0  0  0  0  0  0  0  0  0  0  0
   44.4806   18.8142    9.0370 N   0  0  0  0  0  0  0  0  0  0  0  0
   45.8956   18.6285    8.9234 N   0  0  0  0  0  0  0  0  0  0  0  0
   46.2841   18.7434    7.5398 N   0  0  0  0  0  0  0  0  0  0  0  0
   45.9188   20.0414    7.0330 N   0  0  0  0  0  0  0  0  0  0  0  0
   46.5618   21.0393    7.8271 N   0  0  0  0  0  0  0  0  0  0  0  0
   47.9968   20.8508    7.7145 N   0  0  0  0  0  0  0  0  0  0  0  0
   48.4014   20.9408    6.3282 N   0  0  0  0  0  0  0  0  0  0  0  0
   48.0595   22.2430    5.8121 N   0  0  0  0  0  0  0  0  0  0  0  0
   48.6819   23.2647    6.5907 N   0  0  0  0  0  0  0  0  0  0  0  0
   50.1016   23.0727    6.5094 N   0  0  0  0  0  0  0  0  0  0  0  0
   50.5098   23.1245    5.1259 N   0  0  0  0  0  0  0  0  0  0  0  0
   50.1475   24.4009    4.5925 N   0  0  0  0  0  0  0  0  0  0  0  0
   50.7990   25.4441    5.3411 N   0  0  0  0  0  0  0  0  0  0  0  0
   52.2145   25.2619    5.2968 N   0  0  0  0  0  0  0  0  0  0  0  0
   52.6605   25.3304    3.9336 N   0  0  0  0  0  0  0  0  0  0  0  0
   52.2997   26.5906    3.3704 N   0  0  0  0  0  0  0  0  0  0  0  0
   52.9269   27.6535    4.1063 N   0  0  0  0  0  0  0  0  0  0  0  0
   54.3277   27.4807    4.1062 N   0  0  0  0  0  0  0  0  0  0  0  0
   54.8171   27.5463    2.7514 N   0  0  0  0  0  0  0  0  0  0  0  0
   54.4325   28.7812    2.1419 N   0  0  0  0  0  0  0  0  0  0  0  0
   55.0270   29.8548    2.8881 N   0  0  0  0  0  0  0  0  0  0  0  0
   56.4567   29.6942    2.9096 N   0  0  0  0  0  0  0  0  0  0  0  0
   56.9348   29.7258    1.5536 N   0  0  0  0  0  0  0  0  0  0  0  0
   56.5608   30.9615    0.9324 N   0  0  0  0  0  0  0  0  0  0  0  0
   57.1499   32.0489    1.6536 N   0  0  0  0  0  0  0  0  0  0  0  0
   58.5662   31.9264    1.6881 N   0  0  0  0  0  0  0  0  0  0  0  0
   59.0714   31.9436    0.3649 N   0  0  0  0  0  0  0  0  0  0  0  0
   58.6971   33.1371   -0.2868 N   0  0  0  0  0  0  0  0  0  0  0  0
   59.2418   34.2405    0.4273 N   0  0  0  0  0  0  0  0  0  0  0  0
   60.6480   34.1059    0.5066 N   0  0  0  0  0  0  0  0  0  0  0  0
   61.1902   34.1133   -0.8266 N   0  0  0  0  0  0  0  0  0  0  0  0
   60.8172   35.3135   -1.5031 N   0  0  0  0  0  0  0  0  0  0  0  0
   61.3407   36.4491   -0.8012 N   0  0  0  0  0  0  0  0  0  0  0  0
   62.7851   36.3752   -0.7181 N   0  0  0  0  0  0  0  0  0  0  0  0
   63.3547   36.3404   -2.0383 N   0  0  0  0  0  0  0  0  0  0  0  0
   62.9786   37.5178   -2.7398 N   0  0  0  0  0  0  0  0  0  0  0  0
    2.8940   11.1497    1.8034 H   0  0  0  0  0  0  0  0  0  0  0  0
    2.9864    9.8956    3.1758 H   0  0  0  0  0  0  0  0  0  0  0  0
    3.9397    9.5741    0.2854 H   0  0  0  0  0  0  0  0  0  0  0  0
    3.6129    7.1658    1.1883 H   0  0  0  0  0  0  0  0  0  0  0  0
    3.8874    7.7780    2.8259 H   0  0  0  0  0  0  0  0  0  0  0  0
    6.1964    8.4516    2.1944 H   0  0  0  0  0  0  0  0  0  0  0  0
    5.9272    7.8266    0.5545 H   0  0  0  0  0  0  0  0  0  0  0  0
    5.4965    5.5644    1.4827 H   0  0  0  0  0  0  0  0  0  0  0  0
    5.7637    6.1857    3.1294 H   0  0  0  0  0  0  0  0  0  0  0  0
    7.9944    6.7975    2.4705 H   0  0  0  0  0  0  0  0  0  0  0  0
    7.2939    4.1311    1.7859 H   0  0  0  0  0  0  0  0  0  0  0  0
    9.7026    5.3495    2.7341 H   0  0  0  0  0  0  0  0  0  0  0  0
    9.1128    2.6044    2.0804 H   0  0  0  0  0  0  0  0  0  0  0  0
   11.2510    3.2300    1.4827 H   0  0  0  0  0  0  0  0  0  0  0  0
   11.4742    3.9821    4.2272 H   0  0  0  0  0  0  0  0  0  0  0  0
   13.3163    3.9710    2.0702 H   0  0  0  0  0  0  0  0  0  0  0  0
   13.5352    4.7357    4.8225 H   0  0  0  0  0  0  0  0  0  0  0  0
   15.4810    4.7633    2.7004 H   0  0  0  0  0  0  0  0  0  0  0  0
   15.6833    5.5080    5.4315 H   0  0  0  0  0  0  0  0  0  0  0  0
   17.5705    5.5136    3.2916 H   0  0  0  0  0  0  0  0  0  0  0  0
   17.7674    6.2613    6.0335 H   0  0  0  0  0  0  0  0  0  0  0  0
   19.6714    6.2737    3.8932 H   0  0  0  0  0  0  0  0  0  0  0  0
   19.9031    7.0247    6.6417 H   0  0  0  0  0  0  0  0  0  0  0  0
   21.8339    7.0237    4.4245 H   0  0  0  0  0  0  0  0  0  0  0  0
   21.8386    5.9076    5.8117 H   0  0  0  0  0  0  0  0  0  0  0  0
   22.0629    7.8462    7.3572 H   0  0  0  0  0  0  0  0  0  0  0  0
   22.0624    8.9525    5.9693 H   0  0  0  0  0  0  0  0  0  0  0  0
   24.0918    7.8287    5.0739 H   0  0  0  0  0  0  0  0  0  0  0  0
   24.0913    6.7221    6.4594 H   0  0  0  0  0  0  0  0  0  0  0  0
   24.3186    8.6553    8.0049 H   0  0  0  0  0  0  0  0  0  0  0  0
   24.3171    9.7633    6.6200 H   0  0  0  0  0  0  0  0  0  0  0  0
   26.3458    8.6420    5.7207 H   0  0  0  0  0  0  0  0  0  0  0  0
   26.3473    7.5341    7.1056 H   0  0  0  0  0  0  0  0  0  0  0  0
   26.5721    9.4686    8.6520 H   0  0  0  0  0  0  0  0  0  0  0  0
   26.5727   10.5755    7.2663 H   0  0  0  0  0  0  0  0  0  0  0  0
   28.6013    9.4521    6.3697 H   0  0  0  0  0  0  0  0  0  0  0  0
   28.6008    8.3452    7.7553 H   0  0  0  0  0  0  0  0  0  0  0  0
   28.8265   10.2796    9.3008 H   0  0  0  0  0  0  0  0  0  0  0  0
   28.8271   11.3865    7.9151 H   0  0  0  0  0  0  0  0  0  0  0  0
   30.8557   10.2631    7.0185 H   0  0  0  0  0  0  0  0  0  0  0  0
   30.8552    9.1562    8.4041 H   0  0  0  0  0  0  0  0  0  0  0  0
   31.0809   11.0907    9.9495 H   0  0  0  0  0  0  0  0  0  0  0  0
   31.0815   12.1976    8.5639 H   0  0  0  0  0  0  0  0  0  0  0  0
   33.1102   11.0742    7.6673 H   0  0  0  0  0  0  0  0  0  0  0  0
   33.1096    9.9672    9.0529 H   0  0  0  0  0  0  0  0  0  0  0  0
   33.3354   11.9017   10.5983 H   0  0  0  0  0  0  0  0  0  0  0  0
   33.3360   13.0086    9.2127 H   0  0  0  0  0  0  0  0  0  0  0  0
   35.3649   11.8867    8.3163 H   0  0  0  0  0  0  0  0  0  0  0  0
   35.3640   10.7778    9.7004 H   0  0  0  0  0  0  0  0  0  0  0  0
   35.5901   12.7101   11.2484 H   0  0  0  0  0  0  0  0  0  0  0  0
   35.5912   13.8189    9.8644 H   0  0  0  0  0  0  0  0  0  0  0  0
   37.6195   12.6972    8.9665 H   0  0  0  0  0  0  0  0  0  0  0  0
   37.6189   11.5875   10.3508 H   0  0  0  0  0  0  0  0  0  0  0  0
   37.8415   13.5164   11.9056 H   0  0  0  0  0  0  0  0  0  0  0  0
   37.8479   14.6332   10.5140 H   0  0  0  0  0  0  0  0  0  0  0  0
   39.7058   13.4666    9.6899 H   0  0  0  0  0  0  0  0  0  0  0  0
   39.9902   14.2575   12.4514 H   0  0  0  0  0  0  0  0  0  0  0  0
   41.9417   13.2229   11.6002 H   0  0  0  0  0  0  0  0  0  0  0  0
   41.5334   13.5853    9.3660 H   0  0  0  0  0  0  0  0  0  0  0  0
   40.6417   15.7619    9.5900 H   0  0  0  0  0  0  0  0  0  0  0  0
   42.1461   16.5096   11.2391 H   0  0  0  0  0  0  0  0  0  0  0  0
   44.0278   15.4586   10.4557 H   0  0  0  0  0  0  0  0  0  0  0  0
   43.6637   15.8425    8.1526 H   0  0  0  0  0  0  0  0  0  0  0  0
   42.8085   17.9853    8.3661 H   0  0  0  0  0  0  0  0  0  0  0  0
   44.1911   18.7091   10.0225 H   0  0  0  0  0  0  0  0  0  0  0  0
   46.1366   17.6908    9.2866 H   0  0  0  0  0  0  0  0  0  0  0  0
   45.7869   18.0073    7.0076 H   0  0  0  0  0  0  0  0  0  0  0  0
   44.9164   20.1710    7.1459 H   0  0  0  0  0  0  0  0  0  0  0  0
   46.2573   20.9205    8.8024 H   0  0  0  0  0  0  0  0  0  0  0  0
   48.2229   19.9127    8.0781 H   0  0  0  0  0  0  0  0  0  0  0  0
   47.9153   20.2106    5.7855 H   0  0  0  0  0  0  0  0  0  0  0  0
   47.0516   22.3829    5.8806 H   0  0  0  0  0  0  0  0  0  0  0  0
   48.3646   23.1946    7.5685 H   0  0  0  0  0  0  0  0  0  0  0  0
   50.3065   22.1354    6.8932 H   0  0  0  0  0  0  0  0  0  0  0  0
   50.0195   22.3763    4.6104 H   0  0  0  0  0  0  0  0  0  0  0  0
   49.1503   24.5601    4.6533 H   0  0  0  0  0  0  0  0  0  0  0  0
   50.5221   25.3979    6.3121 H   0  0  0  0  0  0  0  0  0  0  0  0
   52.4509   24.3537    5.7031 H   0  0  0  0  0  0  0  0  0  0  0  0
   52.2034   24.5716    3.4002 H   0  0  0  0  0  0  0  0  0  0  0  0
   51.2825   26.7208    3.4033 H   0  0  0  0  0  0  0  0  0  0  0  0
   52.5973   27.6197    5.0771 H   0  0  0  0  0  0  0  0  0  0  0  0
   54.5820   26.5809    4.4883 H   0  0  0  0  0  0  0  0  0  0  0  0
   54.3514   26.7957    2.2423 H   0  0  0  0  0  0  0  0  0  0  0  0
   53.4050   28.8425    2.1775 H   0  0  0  0  0  0  0  0  0  0  0  0
   54.6633   29.7935    3.8517 H   0  0  0  0  0  0  0  0  0  0  0  0
   56.6778   28.7823    3.3430 H   0  0  0  0  0  0  0  0  0  0  0  0
   56.4963   28.9475    1.0386 H   0  0  0  0  0  0  0  0  0  0  0  0
   55.5364   31.0414    0.9365 H   0  0  0  0  0  0  0  0  0  0  0  0
   56.8207   32.0495    2.6158 H   0  0  0  0  0  0  0  0  0  0  0  0
   58.8327   31.0499    2.1209 H   0  0  0  0  0  0  0  0  0  0  0  0
   58.6751   31.1706   -0.1557 H   0  0  0  0  0  0  0  0  0  0  0  0
   57.6931   33.2363   -0.2966 H   0  0  0  0  0  0  0  0  0  0  0  0
   58.8626   34.2272    1.3760 H   0  0  0  0  0  0  0  0  0  0  0  0
   60.9042   33.2298    0.9643 H   0  0  0  0  0  0  0  0  0  0  0  0
   60.7936   33.3064   -1.3292 H   0  0  0  0  0  0  0  0  0  0  0  0
   59.7909   35.3846   -1.5620 H   0  0  0  0  0  0  0  0  0  0  0  0
   60.9477   36.4751    0.1473 H   0  0  0  0  0  0  0  0  0  0  0  0
   63.0289   35.5059   -0.2269 H   0  0  0  0  0  0  0  0  0  0  0  0
   62.9739   35.5171   -2.5289 H   0  0  0  0  0  0  0  0  0  0  0  0
   63.3108   38.3381   -2.2262 H   0  0  0  0  0  0  0  0  0  0  0  0
   61.9579   37.6023   -2.7804 H   0  0  0  0  0  0  0  0  0  0  0  0
  1  2  2  0  0  0  0
  1 81  1  0  0  0  0
  1 82  1  0  0  0  0
  2  3  1  0  0  0  0
  2 83  1  0  0  0  0
  3  4  1  0  0  0  0
  3 84  1  0  0  0  0
  3 85  1  0  0  0  0
  4  5  1  0  0  0  0
  4 86  1  0  0  0  0
  4 87  1  0  0  0  0
  5  6  1  0  0  0  0
  5 88  1  0  0  0  0
  5 89  1  0  0  0  0
  6  7  1  0  0  0  0
  6 90  1  0  0  0  0
  7  8  1  0  0  0  0
  7 91  1  0  0  0  0
  8  9  1  0  0  0  0
  8 92  1  0  0  0  0
  9 10  1  0  0  0  0
  9 93  1  0  0  0  0
 10 11  1  0  0  0  0
 10 94  1  0  0  0  0
 11 12  1  0  0  0  0
 11 95  1  0  0  0  0
 12 13  1  0  0  0  0
 12 96  1  0  0  0  0
 13 14  1  0  0  0  0
 13 97  1  0  0  0  0
 14 15  1  0  0  0  0
 14 98  1  0  0  0  0
 15 16  1  0  0  0  0
 15 99  1  0  0  0  0
 16 17  1  0  0  0  0
 16100  1  0  0  0  0
 17 18  1  0  0  0  0
 17101  1  0  0  0  0
 18 19  1  0  0  0  0
 18102  1  0  0  0  0
 19 20  1  0  0  0  0
 19103  1  0  0  0  0
 20 21  1  0  0  0  0
 20104  1  0  0  0  0
 20105  1  0  0  0  0
 21 22  1  0  0  0  0
 21106  1  0  0  0  0
 21107  1  0  0  0  0
 22 23  1  0  0  0  0
 22108  1  0  0  0  0
 22109  1  0  0  0  0
 23 24  1  0  0  0  0
 23110  1  0  0  0  0
 23111  1  0  0  0  0
 24 25  1  0  0  0  0
 24112  1  0  0  0  0
 24113  1  0  0  0  0
 25 26  1  0  0  0  0
 25114  1  0  0  0  0
 25115  1  0  0  0  0
 26 27  1  0  0  0  0
 26116  1  0  0  0  0
 26117  1  0  0  0  0
 27 28  1  0  0  0  0
 27118  1  0  0  0  0
 27119  1  0  0  0  0
 28 29  1  0  0  0  0
 28120  1  0  0  0  0
 28121  1  0  0  0  0
 29 30  1  0  0  0  0
 29122  1  0  0  0  0
 29123  1  0  0  0  0
 30 31  1  0  0  0  0
 30124  1  0  0  0  0
 30125  1  0  0  0  0
 31 32  1  0  0  0  0
 31126  1  0  0  0  0
 31127  1  0  0  0  0
 32 33  1  0  0  0  0
 32128  1  0  0  0  0
 32129  1  0  0  0  0
 33 34  1  0  0  0  0
 33130  1  0  0  0  0
 33131  1  0  0  0  0
 34 35  1  0  0  0  0
 34132  1  0  0  0  0
 34133  1  0  0  0  0
 35 36  1  0  0  0  0
 35134  1  0  0  0  0
 35135  1  0  0  0  0
 36 37  1  0  0  0  0
 36136  1  0  0  0  0
 37 38  1  0  0  0  0
 37137  1  0  0  0  0
 38 39  1  0  0  0  0
 38138  1  0  0  0  0
 39 40  1  0  0  0  0
 39139  1  0  0  0  0
 40 41  1  0  0  0  0
 40140  1  0  0  0  0
 41 42  1  0  0  0  0
 41141  1  0  0  0  0
 42 43  1  0  0  0  0
 42142  1  0  0  0  0
 43 44  1  0  0  0  0
 43143  1  0  0  0  0
 44 45  1  0  0  0  0
 44144  1  0  0  0  0
 45 46  1  0  0  0  0
 45145  1  0  0  0  0
 46 47  1  0  0  0  0
 46146  1  0  0  0  0
 47 48  1  0  0  0  0
 47147  1  0  0  0  0
 48 49  1  0  0  0  0
 48148  1  0  0  0  0
 49 50  1  0  0  0  0
 49149  1  0  0  0  0
 50 51  1  0  0  0  0
 50150  1  0  0  0  0
 51 52  1  0  0  0  0
 51151  1  0  0  0  0
 52 53  1  0  0  0  0
 52152  1  0  0  0  0
 53 54  1  0  0  0  0
 53153  1  0  0  0  0
 54 55  1  0  0  0  0
 54154  1  0  0  0  0
 55 56  1  0  0  0  0
 55155  1  0  0  0  0
 56 57  1  0  0  0  0
 56156  1  0  0  0  0
 57 58  1  0  0  0  0
 57157  1  0  0  0  0
 58 59  1  0  0  0  0
 58158  1  0  0  0  0
 59 60  1  0  0  0  0
 59159  1  0  0  0  0
 60 61  1  0  0  0  0
 60160  1  0  0  0  0
 61 62  1  0  0  0  0
 61161  1  0  0  0  0
 62 63  1  0  0  0  0
 62162  1  0  0  0  0
 63 64  1  0  0  0  0
 63163  1  0  0  0  0
 64 65  1  0  0  0  0
 64164  1  0  0  0  0
 65 66  1  0  0  0  0
 65165  1  0  0  0  0
 66 67  1  0  0  0  0
 66166  1  0  0  0  0
 67 68  1  0  0  0  0
 67167  1  0  0  0  0
 68 69  1  0  0  0  0
 68168  1  0  0  0  0
 69 70  1  0  0  0  0
 69169  1  0  0  0  0
 70 71  1  0  0  0  0
 70170  1  0  0  0  0
 71 72  1  0  0  0  0
 71171  1  0  0  0  0
 72 73  1  0  0  0  0
 72172  1  0  0  0  0
 73 74  1  0  0  0  0
 73173  1  0  0  0  0
 74 75  1  0  0  0  0
 74174  1  0  0  0  0
 75 76  1  0  0  0  0
 75175  1  0  0  0  0
 76 77  1  0  0  0  0
 76176  1  0  0  0  0
 77 78  1  0  0  0  0
 77177  1  0  0  0  0
 78 79  1  0  0  0  0
 78178  1  0  0  0  0
 79 80  1  0  0  0  0
 79179  1  0  0  0  0
 80180  1  0  0  0  0
 80181  1  0  0  0  0
M  END
$$$$
