
 OpenBabel04232217033D

137136  0  0  0  0  0  0  0  0999 V2000
   51.8213  -20.9114   29.2769 S   0  0  0  0  0  0  0  0  0  0  0  0
   51.1398  -19.6394   30.0742 N   0  0  0  0  0  0  0  0  0  0  0  0
   49.4993  -19.8207   30.1788 S   0  0  0  0  0  0  0  0  0  0  0  0
   49.1033  -18.1167   31.2611 S   0  0  0  0  0  0  0  0  0  0  0  0
   49.4619  -16.8514   30.0269 C   0  0  0  0  0  0  0  0  0  0  0  0
   49.1478  -15.5083   30.5176 N   0  0  0  0  0  0  0  0  0  0  0  0
   49.6313  -14.6211   29.5319 N   0  0  0  0  0  0  0  0  0  0  0  0
   49.3830  -13.2857   29.9351 N   0  0  0  0  0  0  0  0  0  0  0  0
   49.7518  -12.3375   28.9489 N   0  0  0  0  0  0  0  0  0  0  0  0
   48.9452  -12.4251   27.7860 N   0  0  0  0  0  0  0  0  0  0  0  0
   47.5583  -12.2671   28.0910 N   0  0  0  0  0  0  0  0  0  0  0  0
   47.3436  -10.9533   28.6067 N   0  0  0  0  0  0  0  0  0  0  0  0
   47.7505  -10.0288   27.5827 N   0  0  0  0  0  0  0  0  0  0  0  0
   47.0298  -10.3656   26.3583 N   0  0  0  0  0  0  0  0  0  0  0  0
   45.5919  -10.3364   26.6428 N   0  0  0  0  0  0  0  0  0  0  0  0
   45.2360   -9.0471   27.2388 N   0  0  0  0  0  0  0  0  0  0  0  0
   45.6990   -7.9662   26.3816 N   0  0  0  0  0  0  0  0  0  0  0  0
   45.0189   -7.9802   25.1165 N   0  0  0  0  0  0  0  0  0  0  0  0
   43.6196   -7.7785   25.2545 N   0  0  0  0  0  0  0  0  0  0  0  0
   43.3362   -6.4848   25.7629 N   0  0  0  0  0  0  0  0  0  0  0  0
   43.7628   -5.4813   24.8219 N   0  0  0  0  0  0  0  0  0  0  0  0
   43.0784   -5.6532   23.5458 N   0  0  0  0  0  0  0  0  0  0  0  0
   41.6423   -5.5770   23.7157 N   0  0  0  0  0  0  0  0  0  0  0  0
   41.2325   -4.3200   24.2826 N   0  0  0  0  0  0  0  0  0  0  0  0
   41.5598   -3.1881   23.5106 N   0  0  0  0  0  0  0  0  0  0  0  0
   40.9870   -3.1474   22.2306 N   0  0  0  0  0  0  0  0  0  0  0  0
   39.5774   -3.0882   22.2812 N   0  0  0  0  0  0  0  0  0  0  0  0
   39.1131   -1.9003   22.9210 N   0  0  0  0  0  0  0  0  0  0  0  0
   39.3521   -0.6669   22.2548 N   0  0  0  0  0  0  0  0  0  0  0  0
   38.6371   -0.5235   21.0454 N   0  0  0  0  0  0  0  0  0  0  0  0
   37.2458   -0.6274   21.2386 N   0  0  0  0  0  0  0  0  0  0  0  0
   36.7782    0.5014   21.9444 N   0  0  0  0  0  0  0  0  0  0  0  0
   35.1272    0.4987   22.0284 S   0  0  0  0  0  0  0  0  0  0  0  0
   34.7032   -0.9301   22.7448 N   0  0  0  0  0  0  0  0  0  0  0  0
   34.9850   -0.9830   24.3657 S   0  0  0  0  0  0  0  0  0  0  0  0
   36.6243   -1.0733   24.4542 N   0  0  0  0  0  0  0  0  0  0  0  0
   37.2237   -1.0394   25.9827 S   0  0  0  0  0  0  0  0  0  0  0  0
   36.6716   -2.4048   26.7466 N   0  0  0  0  0  0  0  0  0  0  0  0
   37.5142   -2.6612   28.1468 S   0  0  0  0  0  0  0  0  0  0  0  0
   36.8940   -1.5358   29.1839 N   0  0  0  0  0  0  0  0  0  0  0  0
   37.6117   -1.6126   30.6644 S   0  0  0  0  0  0  0  0  0  0  0  0
   36.9257   -0.3940   31.5516 N   0  0  0  0  0  0  0  0  0  0  0  0
   37.4128    1.1199   31.0859 S   0  0  0  0  0  0  0  0  0  0  0  0
   36.8836    1.3801   29.5422 N   0  0  0  0  0  0  0  0  0  0  0  0
   35.2477    1.5423   29.3517 S   0  0  0  0  0  0  0  0  0  0  0  0
   34.6443    2.6733   30.3791 N   0  0  0  0  0  0  0  0  0  0  0  0
   35.0026    4.2514   30.0474 S   0  0  0  0  0  0  0  0  0  0  0  0
   34.5212    4.6912   28.5324 N   0  0  0  0  0  0  0  0  0  0  0  0
   32.9082    4.7829   28.2231 S   0  0  0  0  0  0  0  0  0  0  0  0
   32.1878    5.8491   29.2545 N   0  0  0  0  0  0  0  0  0  0  0  0
   32.5824    7.4440   29.0954 S   0  0  0  0  0  0  0  0  0  0  0  0
   32.2901    7.9888   27.5678 N   0  0  0  0  0  0  0  0  0  0  0  0
   30.7182    8.1050   27.0779 S   0  0  0  0  0  0  0  0  0  0  0  0
   29.8444    9.0477   28.1162 N   0  0  0  0  0  0  0  0  0  0  0  0
   30.1874   10.6649   28.1291 S   0  0  0  0  0  0  0  0  0  0  0  0
   30.0638   11.3274   26.6210 N   0  0  0  0  0  0  0  0  0  0  0  0
   28.5486   11.4329   25.9639 S   0  0  0  0  0  0  0  0  0  0  0  0
   27.5060   12.2569   26.9460 N   0  0  0  0  0  0  0  0  0  0  0  0
   27.7762   13.8817   27.1210 S   0  0  0  0  0  0  0  0  0  0  0  0
   27.7091   14.7192   25.6944 N   0  0  0  0  0  0  0  0  0  0  0  0
   26.2662   14.7603   24.8989 S   0  0  0  0  0  0  0  0  0  0  0  0
   25.1150   15.5587   25.7728 N   0  0  0  0  0  0  0  0  0  0  0  0
   25.3989   17.1448   26.1236 S   0  0  0  0  0  0  0  0  0  0  0  0
   25.4281   18.0735   24.7587 N   0  0  0  0  0  0  0  0  0  0  0  0
   24.0661   18.1157   23.8375 S   0  0  0  0  0  0  0  0  0  0  0  0
   22.8244   18.7359   24.7286 N   0  0  0  0  0  0  0  0  0  0  0  0
   22.9976   20.2919   25.2526 S   0  0  0  0  0  0  0  0  0  0  0  0
   23.2596   21.2916   23.9693 N   0  0  0  0  0  0  0  0  0  0  0  0
   21.9895   21.5120   22.9357 S   0  0  0  0  0  0  0  0  0  0  0  0
   20.6352   21.9774   23.7523 N   0  0  0  0  0  0  0  0  0  0  0  0
   20.6335   23.4892   24.4145 S   0  0  0  0  0  0  0  0  0  0  0  0
   20.9418   24.6215   23.2534 N   0  0  0  0  0  0  0  0  0  0  0  0
   19.7516   24.8507   22.1237 S   0  0  0  0  0  0  0  0  0  0  0  0
   18.3222   25.2845   22.8405 N   0  0  0  0  0  0  0  0  0  0  0  0
   18.2973   26.7855   23.5457 S   0  0  0  0  0  0  0  0  0  0  0  0
   18.6901   27.9696   22.4465 N   0  0  0  0  0  0  0  0  0  0  0  0
   17.5748   28.1278   21.2298 S   0  0  0  0  0  0  0  0  0  0  0  0
   17.9730   29.4601   20.3178 N   0  0  0  0  0  0  0  0  0  0  0  0
   19.4491   29.2867   19.5789 S   0  0  0  0  0  0  0  0  0  0  0  0
   19.6868   30.5506   18.5409 N   0  0  0  0  0  0  0  0  0  0  0  0
   19.8245   31.9995   19.3192 S   0  0  0  0  0  0  0  0  0  0  0  0
   53.0552  -20.3975   29.1638 H   0  0  0  0  0  0  0  0  0  0  0  0
   51.3523  -18.7789   29.5698 H   0  0  0  0  0  0  0  0  0  0  0  0
   48.8723  -17.0564   29.1236 H   0  0  0  0  0  0  0  0  0  0  0  0
   50.5258  -16.8952   29.7684 H   0  0  0  0  0  0  0  0  0  0  0  0
   49.6601  -15.3309   31.3783 H   0  0  0  0  0  0  0  0  0  0  0  0
   49.1934  -14.9217   28.6587 H   0  0  0  0  0  0  0  0  0  0  0  0
   49.8956  -13.1015   30.8035 H   0  0  0  0  0  0  0  0  0  0  0  0
   50.7466  -12.3604   28.7339 H   0  0  0  0  0  0  0  0  0  0  0  0
   49.1253  -13.2477   27.2209 H   0  0  0  0  0  0  0  0  0  0  0  0
   47.2045  -12.9544   28.7457 H   0  0  0  0  0  0  0  0  0  0  0  0
   47.8986  -10.8228   29.4576 H   0  0  0  0  0  0  0  0  0  0  0  0
   48.7630  -10.1056   27.4444 H   0  0  0  0  0  0  0  0  0  0  0  0
   47.3061  -11.2930   25.9928 H   0  0  0  0  0  0  0  0  0  0  0  0
   45.2978  -11.1179   27.2554 H   0  0  0  0  0  0  0  0  0  0  0  0
   45.6274   -8.9310   28.1897 H   0  0  0  0  0  0  0  0  0  0  0  0
   46.7126   -8.0121   26.2170 H   0  0  0  0  0  0  0  0  0  0  0  0
   45.1986   -8.8036   24.5473 H   0  0  0  0  0  0  0  0  0  0  0  0
   43.1323   -8.4938   25.7819 H   0  0  0  0  0  0  0  0  0  0  0  0
   43.7029   -6.3247   26.7037 H   0  0  0  0  0  0  0  0  0  0  0  0
   44.7783   -5.4646   24.6852 H   0  0  0  0  0  0  0  0  0  0  0  0
   43.3263   -6.5330   23.0704 H   0  0  0  0  0  0  0  0  0  0  0  0
   41.2508   -6.3663   24.2515 H   0  0  0  0  0  0  0  0  0  0  0  0
   41.5320   -4.1497   25.2477 H   0  0  0  0  0  0  0  0  0  0  0  0
   42.5166   -2.8787   23.5017 H   0  0  0  0  0  0  0  0  0  0  0  0
   41.2802   -3.8804   21.6027 H   0  0  0  0  0  0  0  0  0  0  0  0
   39.1697   -3.8971   22.7637 H   0  0  0  0  0  0  0  0  0  0  0  0
   39.3875   -1.8253   23.9088 H   0  0  0  0  0  0  0  0  0  0  0  0
   40.3411   -0.4905   22.0905 H   0  0  0  0  0  0  0  0  0  0  0  0
   38.9243   -1.2692   20.4237 H   0  0  0  0  0  0  0  0  0  0  0  0
   37.0894   -1.4712   21.7805 H   0  0  0  0  0  0  0  0  0  0  0  0
   37.1365    1.3242   21.4513 H   0  0  0  0  0  0  0  0  0  0  0  0
   35.1090   -1.7247   22.2601 H   0  0  0  0  0  0  0  0  0  0  0  0
   36.9798   -0.2888   23.8980 H   0  0  0  0  0  0  0  0  0  0  0  0
   36.7848   -3.1987   26.1096 H   0  0  0  0  0  0  0  0  0  0  0  0
   35.8776   -1.6287   29.2174 H   0  0  0  0  0  0  0  0  0  0  0  0
   37.1625   -0.5017   32.5353 H   0  0  0  0  0  0  0  0  0  0  0  0
   37.2274    0.6352   28.9344 H   0  0  0  0  0  0  0  0  0  0  0  0
   34.8963    2.4494   31.3434 H   0  0  0  0  0  0  0  0  0  0  0  0
   34.9706    4.1227   27.8228 H   0  0  0  0  0  0  0  0  0  0  0  0
   32.4083    5.5338   30.2005 H   0  0  0  0  0  0  0  0  0  0  0  0
   32.8225    7.4265   26.9049 H   0  0  0  0  0  0  0  0  0  0  0  0
   29.9607    8.6503   29.0522 H   0  0  0  0  0  0  0  0  0  0  0  0
   30.6835   10.8245   25.9873 H   0  0  0  0  0  0  0  0  0  0  0  0
   27.4668   11.7925   27.8563 H   0  0  0  0  0  0  0  0  0  0  0  0
   28.4459   14.4290   25.0563 H   0  0  0  0  0  0  0  0  0  0  0  0
   24.9226   15.0403   26.6300 H   0  0  0  0  0  0  0  0  0  0  0  0
   26.2171   17.8137   24.1764 H   0  0  0  0  0  0  0  0  0  0  0  0
   22.6925   18.1192   25.5297 H   0  0  0  0  0  0  0  0  0  0  0  0
   24.0883   20.9761   23.4611 H   0  0  0  0  0  0  0  0  0  0  0  0
   20.3958   21.2849   24.4586 H   0  0  0  0  0  0  0  0  0  0  0  0
   21.8091   24.3590   22.7896 H   0  0  0  0  0  0  0  0  0  0  0  0
   18.0452   24.5515   23.5007 H   0  0  0  0  0  0  0  0  0  0  0  0
   19.6273   27.7874   22.0848 H   0  0  0  0  0  0  0  0  0  0  0  0
   17.8972   30.3222   20.8618 H   0  0  0  0  0  0  0  0  0  0  0  0
   19.0323   30.5737   17.7554 H   0  0  0  0  0  0  0  0  0  0  0  0
   21.0083   31.8050   19.9271 H   0  0  0  0  0  0  0  0  0  0  0  0
  1  2  1  0  0  0  0
  1 82  1  0  0  0  0
  2  3  1  0  0  0  0
  2 83  1  0  0  0  0
  3  4  1  0  0  0  0
  4  5  1  0  0  0  0
  5  6  1  0  0  0  0
  5 84  1  0  0  0  0
  5 85  1  0  0  0  0
  6  7  1  0  0  0  0
  6 86  1  0  0  0  0
  7  8  1  0  0  0  0
  7 87  1  0  0  0  0
  8  9  1  0  0  0  0
  8 88  1  0  0  0  0
  9 10  1  0  0  0  0
  9 89  1  0  0  0  0
 10 11  1  0  0  0  0
 10 90  1  0  0  0  0
 11 12  1  0  0  0  0
 11 91  1  0  0  0  0
 12 13  1  0  0  0  0
 12 92  1  0  0  0  0
 13 14  1  0  0  0  0
 13 93  1  0  0  0  0
 14 15  1  0  0  0  0
 14 94  1  0  0  0  0
 15 16  1  0  0  0  0
 15 95  1  0  0  0  0
 16 17  1  0  0  0  0
 16 96  1  0  0  0  0
 17 18  1  0  0  0  0
 17 97  1  0  0  0  0
 18 19  1  0  0  0  0
 18 98  1  0  0  0  0
 19 20  1  0  0  0  0
 19 99  1  0  0  0  0
 20 21  1  0  0  0  0
 20100  1  0  0  0  0
 21 22  1  0  0  0  0
 21101  1  0  0  0  0
 22 23  1  0  0  0  0
 22102  1  0  0  0  0
 23 24  1  0  0  0  0
 23103  1  0  0  0  0
 24 25  1  0  0  0  0
 24104  1  0  0  0  0
 25 26  1  0  0  0  0
 25105  1  0  0  0  0
 26 27  1  0  0  0  0
 26106  1  0  0  0  0
 27 28  1  0  0  0  0
 27107  1  0  0  0  0
 28 29  1  0  0  0  0
 28108  1  0  0  0  0
 29 30  1  0  0  0  0
 29109  1  0  0  0  0
 30 31  1  0  0  0  0
 30110  1  0  0  0  0
 31 32  1  0  0  0  0
 31111  1  0  0  0  0
 32 33  1  0  0  0  0
 32112  1  0  0  0  0
 33 34  1  0  0  0  0
 34 35  1  0  0  0  0
 34113  1  0  0  0  0
 35 36  1  0  0  0  0
 36 37  1  0  0  0  0
 36114  1  0  0  0  0
 37 38  1  0  0  0  0
 38 39  1  0  0  0  0
 38115  1  0  0  0  0
 39 40  1  0  0  0  0
 40 41  1  0  0  0  0
 40116  1  0  0  0  0
 41 42  1  0  0  0  0
 42 43  1  0  0  0  0
 42117  1  0  0  0  0
 43 44  1  0  0  0  0
 44 45  1  0  0  0  0
 44118  1  0  0  0  0
 45 46  1  0  0  0  0
 46 47  1  0  0  0  0
 46119  1  0  0  0  0
 47 48  1  0  0  0  0
 48 49  1  0  0  0  0
 48120  1  0  0  0  0
 49 50  1  0  0  0  0
 50 51  1  0  0  0  0
 50121  1  0  0  0  0
 51 52  1  0  0  0  0
 52 53  1  0  0  0  0
 52122  1  0  0  0  0
 53 54  1  0  0  0  0
 54 55  1  0  0  0  0
 54123  1  0  0  0  0
 55 56  1  0  0  0  0
 56 57  1  0  0  0  0
 56124  1  0  0  0  0
 57 58  1  0  0  0  0
 58 59  1  0  0  0  0
 58125  1  0  0  0  0
 59 60  1  0  0  0  0
 60 61  1  0  0  0  0
 60126  1  0  0  0  0
 61 62  1  0  0  0  0
 62 63  1  0  0  0  0
 62127  1  0  0  0  0
 63 64  1  0  0  0  0
 64 65  1  0  0  0  0
 64128  1  0  0  0  0
 65 66  1  0  0  0  0
 66 67  1  0  0  0  0
 66129  1  0  0  0  0
 67 68  1  0  0  0  0
 68 69  1  0  0  0  0
 68130  1  0  0  0  0
 69 70  1  0  0  0  0
 70 71  1  0  0  0  0
 70131  1  0  0  0  0
 71 72  1  0  0  0  0
 72 73  1  0  0  0  0
 72132  1  0  0  0  0
 73 74  1  0  0  0  0
 74 75  1  0  0  0  0
 74133  1  0  0  0  0
 75 76  1  0  0  0  0
 76 77  1  0  0  0  0
 76134  1  0  0  0  0
 77 78  1  0  0  0  0
 78 79  1  0  0  0  0
 78135  1  0  0  0  0
 79 80  1  0  0  0  0
 80 81  1  0  0  0  0
 80136  1  0  0  0  0
 81137  1  0  0  0  0
M  END
$$$$
