
 OpenBabel04232216463D

 50 50  0  0  1  0  0  0  0  0999 V2000
    2.4868   -0.8547    1.6110 C   0  0  0  0  0  0  0  0  0  0  0  0
    3.9500   -1.4448    1.6233 C   0  0  3  0  0  0  0  0  0  0  0  0
    3.9728   -2.3113    0.4411 C   0  0  0  0  0  0  0  0  0  0  0  0
    4.7779   -2.0608   -0.5826 C   0  0  0  0  0  0  0  0  0  0  0  0
    5.6126   -0.7973   -0.6564 C   0  0  0  0  0  0  0  0  0  0  0  0
    5.1663   -3.1892   -1.2633 N   0  0  0  0  0  0  0  0  0  0  0  0
    6.2651   -3.6023   -0.7090 C   0  0  0  0  0  0  0  0  0  0  0  0
    6.3184   -4.9418   -0.0554 C   0  0  0  0  0  0  0  0  0  0  0  0
    7.4497   -4.9539    0.6600 C   0  0  0  0  0  0  0  0  0  0  0  0
    7.3219   -5.0631    2.0748 C   0  0  0  0  0  0  0  0  0  0  0  0
    7.3745   -6.4767    2.6477 C   0  0  0  0  0  0  0  0  0  0  0  0
    6.5011   -6.9130    3.4478 O   0  0  0  0  0  0  0  0  0  0  0  0
    8.4118   -7.1899    2.1316 N   0  0  0  0  0  0  0  0  0  0  0  0
    8.7394   -8.6056    2.3107 C   0  0  0  0  0  0  0  0  0  0  0  0
    8.0139   -9.4750    1.2906 C   0  0  0  0  0  0  0  0  0  0  0  0
    8.3585  -10.9660    1.3545 C   0  0  0  0  0  0  0  0  0  0  0  0
    7.5546  -11.7337    0.2948 C   0  0  0  0  0  0  0  0  0  0  0  0
    7.8637  -13.2271    0.3337 C   0  0  0  0  0  0  0  0  0  0  0  0
    7.0687  -13.9923   -0.7124 C   0  0  0  0  0  0  0  0  0  0  0  0
    6.7998   -4.0953    2.8692 C   0  0  0  0  0  0  0  0  0  0  0  0
    6.0212   -2.8295    3.0226 C   0  0  0  0  0  0  0  0  0  0  0  0
    5.0193   -1.9270    2.6889 C   0  0  0  0  0  0  0  0  0  0  0  0
    1.8452   -1.3196    0.8366 H   0  0  0  0  0  0  0  0  0  0  0  0
    2.5262    0.1895    1.2383 H   0  0  0  0  0  0  0  0  0  0  0  0
    1.9229   -0.8427    2.5420 H   0  0  0  0  0  0  0  0  0  0  0  0
    4.4415   -0.4858    1.4160 H   0  0  0  0  0  0  0  0  0  0  0  0
    3.4031   -3.2497    0.5033 H   0  0  0  0  0  0  0  0  0  0  0  0
    4.9618    0.0776   -0.7916 H   0  0  0  0  0  0  0  0  0  0  0  0
    6.3554   -0.8276   -1.4337 H   0  0  0  0  0  0  0  0  0  0  0  0
    6.1588   -0.6534    0.2962 H   0  0  0  0  0  0  0  0  0  0  0  0
    6.9873   -2.8721   -0.2722 H   0  0  0  0  0  0  0  0  0  0  0  0
    5.3730   -5.2253    0.4065 H   0  0  0  0  0  0  0  0  0  0  0  0
    8.3808   -4.5531    0.2715 H   0  0  0  0  0  0  0  0  0  0  0  0
    9.0562   -6.6876    1.5188 H   0  0  0  0  0  0  0  0  0  0  0  0
    8.5059   -8.8887    3.3433 H   0  0  0  0  0  0  0  0  0  0  0  0
    9.8316   -8.6827    2.1684 H   0  0  0  0  0  0  0  0  0  0  0  0
    8.2374   -9.1067    0.2775 H   0  0  0  0  0  0  0  0  0  0  0  0
    6.9339   -9.3538    1.4285 H   0  0  0  0  0  0  0  0  0  0  0  0
    8.1184  -11.3554    2.3502 H   0  0  0  0  0  0  0  0  0  0  0  0
    9.4310  -11.1194    1.1888 H   0  0  0  0  0  0  0  0  0  0  0  0
    7.7815  -11.3363   -0.7028 H   0  0  0  0  0  0  0  0  0  0  0  0
    6.4815  -11.5765    0.4626 H   0  0  0  0  0  0  0  0  0  0  0  0
    7.6288  -13.6271    1.3266 H   0  0  0  0  0  0  0  0  0  0  0  0
    8.9337  -13.3881    0.1605 H   0  0  0  0  0  0  0  0  0  0  0  0
    5.9919  -13.8806   -0.5485 H   0  0  0  0  0  0  0  0  0  0  0  0
    7.3108  -15.0586   -0.6639 H   0  0  0  0  0  0  0  0  0  0  0  0
    7.3012  -13.6367   -1.7215 H   0  0  0  0  0  0  0  0  0  0  0  0
    7.7661   -3.7586    3.3864 H   0  0  0  0  0  0  0  0  0  0  0  0
    6.4675   -2.4346    3.9578 H   0  0  0  0  0  0  0  0  0  0  0  0
    5.0377   -1.1150    3.4152 H   0  0  0  0  0  0  0  0  0  0  0  0
  1  2  1  0  0  0  0
  1 23  1  0  0  0  0
  1 24  1  0  0  0  0
  1 25  1  0  0  0  0
  2  3  1  0  0  0  0
  2 22  1  0  0  0  0
  2 26  1  0  0  0  0
  3  4  2  3  0  0  0
  3 27  1  0  0  0  0
  4  5  1  0  0  0  0
  4  6  1  0  0  0  0
  5 28  1  0  0  0  0
  5 29  1  0  0  0  0
  5 30  1  0  0  0  0
  6  7  2  3  0  0  0
  7  8  1  0  0  0  0
  7 31  1  0  0  0  0
  8  9  2  3  0  0  0
  8 32  1  0  0  0  0
  9 10  1  0  0  0  0
  9 33  1  0  0  0  0
 10 11  1  0  0  0  0
 10 20  2  3  0  0  0
 11 12  2  0  0  0  0
 11 13  1  0  0  0  0
 13 14  1  0  0  0  0
 13 34  1  0  0  0  0
 14 15  1  0  0  0  0
 14 35  1  0  0  0  0
 14 36  1  0  0  0  0
 15 16  1  0  0  0  0
 15 37  1  0  0  0  0
 15 38  1  0  0  0  0
 16 17  1  0  0  0  0
 16 39  1  0  0  0  0
 16 40  1  0  0  0  0
 17 18  1  0  0  0  0
 17 41  1  0  0  0  0
 17 42  1  0  0  0  0
 18 19  1  0  0  0  0
 18 43  1  0  0  0  0
 18 44  1  0  0  0  0
 19 45  1  0  0  0  0
 19 46  1  0  0  0  0
 19 47  1  0  0  0  0
 20 21  1  0  0  0  0
 20 48  1  0  0  0  0
 21 22  2  3  0  0  0
 21 49  1  0  0  0  0
 22 50  1  0  0  0  0
M  END
$$$$
