
 OpenBabel04232216483D

 78 78  0  0  0  0  0  0  0  0999 V2000
    0.8224    0.0516    0.0405 C   0  0  0  0  0  0  0  0  0  0  0  0
    2.3828   -0.0087   -0.0056 C   0  0  0  0  0  0  0  0  0  0  0  0
    3.2002    1.3573    0.0523 C   0  0  0  0  0  0  0  0  0  0  0  0
    4.5668    1.2684   -0.0251 C   0  0  0  0  0  0  0  0  0  0  0  0
    3.1267   -1.2256   -0.0756 C   0  0  0  0  0  0  0  0  0  0  0  0
    2.3667   -2.5417   -0.1023 C   0  0  0  0  0  0  0  0  0  0  0  0
    3.3578   -3.6877   -0.1345 C   0  0  0  0  0  0  0  0  0  0  0  0
    2.6049   -5.0051   -0.1612 C   0  0  0  0  0  0  0  0  0  0  0  0
    3.5850   -6.1631   -0.1883 C   0  0  0  0  0  0  0  0  0  0  0  0
    2.8271   -7.4773   -0.2197 C   0  0  0  0  0  0  0  0  0  0  0  0
    3.8060   -8.6323   -0.2462 C   0  0  0  0  0  0  0  0  0  0  0  0
    3.0494   -9.9513   -0.2805 C   0  0  0  0  0  0  0  0  0  0  0  0
    4.0299  -11.1086   -0.3083 C   0  0  0  0  0  0  0  0  0  0  0  0
    3.2765  -12.4248   -0.3391 C   0  0  0  0  0  0  0  0  0  0  0  0
    4.2600  -13.5801   -0.3656 C   0  0  0  0  0  0  0  0  0  0  0  0
    3.5088  -14.8974   -0.4024 C   0  0  0  0  0  0  0  0  0  0  0  0
    4.4906  -16.0539   -0.4289 C   0  0  0  0  0  0  0  0  0  0  0  0
    3.7359  -17.3705   -0.4550 C   0  0  0  0  0  0  0  0  0  0  0  0
    4.7162  -18.5285   -0.4794 C   0  0  0  0  0  0  0  0  0  0  0  0
    3.9620  -19.8457   -0.5110 C   0  0  0  0  0  0  0  0  0  0  0  0
    4.9430  -21.0040   -0.5394 C   0  0  0  0  0  0  0  0  0  0  0  0
    4.1898  -22.3229   -0.5752 C   0  0  0  0  0  0  0  0  0  0  0  0
    5.1697  -23.4831   -0.5982 C   0  0  0  0  0  0  0  0  0  0  0  0
    4.4193  -24.8064   -0.6352 C   0  0  0  0  0  0  0  0  0  0  0  0
    5.4004  -25.9685   -0.6584 C   0  0  0  0  0  0  0  0  0  0  0  0
    4.6601  -27.2984   -0.6942 C   0  0  0  0  0  0  0  0  0  0  0  0
    5.6364  -28.4613   -0.7157 C   0  0  0  0  0  0  0  0  0  0  0  0
    4.9204  -29.6873   -0.7485 O   0  0  0  0  0  0  0  0  0  0  0  0
    0.4424    1.0720    0.0920 H   0  0  0  0  0  0  0  0  0  0  0  0
    0.4699   -0.5413    0.8910 H   0  0  0  0  0  0  0  0  0  0  0  0
    0.4199   -0.4776   -0.8293 H   0  0  0  0  0  0  0  0  0  0  0  0
    2.6611    2.3137    0.1334 H   0  0  0  0  0  0  0  0  0  0  0  0
    5.4511    0.6392   -0.1124 H   0  0  0  0  0  0  0  0  0  0  0  0
    1.7247   -2.5789   -0.9902 H   0  0  0  0  0  0  0  0  0  0  0  0
    1.7290   -2.6229    0.7856 H   0  0  0  0  0  0  0  0  0  0  0  0
    4.0124   -3.6453    0.7459 H   0  0  0  0  0  0  0  0  0  0  0  0
    4.0053   -3.6041   -1.0165 H   0  0  0  0  0  0  0  0  0  0  0  0
    1.9548   -5.0458   -1.0439 H   0  0  0  0  0  0  0  0  0  0  0  0
    1.9581   -5.0844    0.7211 H   0  0  0  0  0  0  0  0  0  0  0  0
    4.2326   -6.1245    0.6956 H   0  0  0  0  0  0  0  0  0  0  0  0
    4.2319   -6.0831   -1.0699 H   0  0  0  0  0  0  0  0  0  0  0  0
    2.1795   -7.5142   -1.1045 H   0  0  0  0  0  0  0  0  0  0  0  0
    2.1786   -7.5577    0.6610 H   0  0  0  0  0  0  0  0  0  0  0  0
    4.4525   -8.5997    0.6370 H   0  0  0  0  0  0  0  0  0  0  0  0
    4.4532   -8.5540   -1.1308 H   0  0  0  0  0  0  0  0  0  0  0  0
    2.4008   -9.9880   -1.1647 H   0  0  0  0  0  0  0  0  0  0  0  0
    2.4012  -10.0311    0.6013 H   0  0  0  0  0  0  0  0  0  0  0  0
    4.6784  -11.0698    0.5756 H   0  0  0  0  0  0  0  0  0  0  0  0
    4.6777  -11.0280   -1.1900 H   0  0  0  0  0  0  0  0  0  0  0  0
    2.6283  -12.4641   -1.2231 H   0  0  0  0  0  0  0  0  0  0  0  0
    2.6286  -12.5055    0.5424 H   0  0  0  0  0  0  0  0  0  0  0  0
    4.9041  -13.5419    0.5219 H   0  0  0  0  0  0  0  0  0  0  0  0
    4.9124  -13.4962   -1.2433 H   0  0  0  0  0  0  0  0  0  0  0  0
    2.8638  -14.9351   -1.2891 H   0  0  0  0  0  0  0  0  0  0  0  0
    2.8573  -14.9802    0.4763 H   0  0  0  0  0  0  0  0  0  0  0  0
    5.1408  -16.0132    0.4537 H   0  0  0  0  0  0  0  0  0  0  0  0
    5.1366  -15.9756   -1.3120 H   0  0  0  0  0  0  0  0  0  0  0  0
    3.0865  -17.4108   -1.3379 H   0  0  0  0  0  0  0  0  0  0  0  0
    3.0889  -17.4473    0.4276 H   0  0  0  0  0  0  0  0  0  0  0  0
    5.3624  -18.4898    0.4060 H   0  0  0  0  0  0  0  0  0  0  0  0
    5.3663  -18.4489   -1.3595 H   0  0  0  0  0  0  0  0  0  0  0  0
    3.3131  -19.8831   -1.3947 H   0  0  0  0  0  0  0  0  0  0  0  0
    3.3143  -19.9257    0.3708 H   0  0  0  0  0  0  0  0  0  0  0  0
    5.5894  -20.9661    0.3460 H   0  0  0  0  0  0  0  0  0  0  0  0
    5.5929  -20.9205   -1.4191 H   0  0  0  0  0  0  0  0  0  0  0  0
    3.5460  -22.3586   -1.4626 H   0  0  0  0  0  0  0  0  0  0  0  0
    3.5369  -22.4016    0.3027 H   0  0  0  0  0  0  0  0  0  0  0  0
    5.8127  -23.4434    0.2897 H   0  0  0  0  0  0  0  0  0  0  0  0
    5.8232  -23.3999   -1.4754 H   0  0  0  0  0  0  0  0  0  0  0  0
    3.7757  -24.8416   -1.5227 H   0  0  0  0  0  0  0  0  0  0  0  0
    3.7660  -24.8851    0.2425 H   0  0  0  0  0  0  0  0  0  0  0  0
    6.0437  -25.9254    0.2292 H   0  0  0  0  0  0  0  0  0  0  0  0
    6.0534  -25.8826   -1.5356 H   0  0  0  0  0  0  0  0  0  0  0  0
    4.0078  -27.3474   -1.5752 H   0  0  0  0  0  0  0  0  0  0  0  0
    3.9971  -27.3855    0.1758 H   0  0  0  0  0  0  0  0  0  0  0  0
    6.2792  -28.4556    0.1707 H   0  0  0  0  0  0  0  0  0  0  0  0
    6.2753  -28.4149   -1.6032 H   0  0  0  0  0  0  0  0  0  0  0  0
    4.3609  -29.7174    0.0462 H   0  0  0  0  0  0  0  0  0  0  0  0
  1  2  1  0  0  0  0
  1 29  1  0  0  0  0
  1 30  1  0  0  0  0
  1 31  1  0  0  0  0
  2  3  1  0  0  0  0
  2  5  2  0  0  0  0
  3  4  2  0  0  0  0
  3 32  1  0  0  0  0
  4  5  1  0  0  0  0
  4 33  1  0  0  0  0
  5  6  1  0  0  0  0
  6  7  1  0  0  0  0
  6 34  1  0  0  0  0
  6 35  1  0  0  0  0
  7  8  1  0  0  0  0
  7 36  1  0  0  0  0
  7 37  1  0  0  0  0
  8  9  1  0  0  0  0
  8 38  1  0  0  0  0
  8 39  1  0  0  0  0
  9 10  1  0  0  0  0
  9 40  1  0  0  0  0
  9 41  1  0  0  0  0
 10 11  1  0  0  0  0
 10 42  1  0  0  0  0
 10 43  1  0  0  0  0
 11 12  1  0  0  0  0
 11 44  1  0  0  0  0
 11 45  1  0  0  0  0
 12 13  1  0  0  0  0
 12 46  1  0  0  0  0
 12 47  1  0  0  0  0
 13 14  1  0  0  0  0
 13 48  1  0  0  0  0
 13 49  1  0  0  0  0
 14 15  1  0  0  0  0
 14 50  1  0  0  0  0
 14 51  1  0  0  0  0
 15 16  1  0  0  0  0
 15 52  1  0  0  0  0
 15 53  1  0  0  0  0
 16 17  1  0  0  0  0
 16 54  1  0  0  0  0
 16 55  1  0  0  0  0
 17 18  1  0  0  0  0
 17 56  1  0  0  0  0
 17 57  1  0  0  0  0
 18 19  1  0  0  0  0
 18 58  1  0  0  0  0
 18 59  1  0  0  0  0
 19 20  1  0  0  0  0
 19 60  1  0  0  0  0
 19 61  1  0  0  0  0
 20 21  1  0  0  0  0
 20 62  1  0  0  0  0
 20 63  1  0  0  0  0
 21 22  1  0  0  0  0
 21 64  1  0  0  0  0
 21 65  1  0  0  0  0
 22 23  1  0  0  0  0
 22 66  1  0  0  0  0
 22 67  1  0  0  0  0
 23 24  1  0  0  0  0
 23 68  1  0  0  0  0
 23 69  1  0  0  0  0
 24 25  1  0  0  0  0
 24 70  1  0  0  0  0
 24 71  1  0  0  0  0
 25 26  1  0  0  0  0
 25 72  1  0  0  0  0
 25 73  1  0  0  0  0
 26 27  1  0  0  0  0
 26 74  1  0  0  0  0
 26 75  1  0  0  0  0
 27 28  1  0  0  0  0
 27 76  1  0  0  0  0
 27 77  1  0  0  0  0
 28 78  1  0  0  0  0
M  END
$$$$
