
 OpenBabel04232216563D

240239  0  0  0  0  0  0  0  0999 V2000
    0.9607    1.9030   -4.5102 C   0  0  0  0  0  0  0  0  0  0  0  0
    2.4177    1.9148   -4.5289 N   0  0  0  0  0  0  0  0  0  0  0  0
    2.9387    2.0785   -3.1748 C   0  0  0  0  0  0  0  0  0  0  0  0
    4.4617    2.0907   -3.2085 C   0  0  0  0  0  0  0  0  0  0  0  0
    5.0235    2.2554   -1.7944 C   0  0  0  0  0  0  0  0  0  0  0  0
    6.5399    2.2787   -1.8037 C   0  0  0  0  0  0  0  0  0  0  0  0
    6.9566    3.3855   -2.5912 O   0  0  0  0  0  0  0  0  0  0  0  0
    8.4022    3.3293   -2.5833 O   0  0  0  0  0  0  0  0  0  0  0  0
    8.8040    4.4155   -3.4019 C   0  0  0  0  0  0  0  0  0  0  0  0
   10.3161    4.4294   -3.4125 C   0  0  0  0  0  0  0  0  0  0  0  0
   10.8310    5.5715   -4.2661 C   0  0  0  0  0  0  0  0  0  0  0  0
   12.3493    5.5742   -4.2700 C   0  0  0  0  0  0  0  0  0  0  0  0
   12.8623    6.7168   -5.1269 C   0  0  0  0  0  0  0  0  0  0  0  0
   14.3796    6.7213   -5.1302 C   0  0  0  0  0  0  0  0  0  0  0  0
   14.8903    7.8648   -5.9868 C   0  0  0  0  0  0  0  0  0  0  0  0
   16.4072    7.8682   -5.9924 C   0  0  0  0  0  0  0  0  0  0  0  0
   16.9171    9.0122   -6.8481 C   0  0  0  0  0  0  0  0  0  0  0  0
   18.4339    9.0138   -6.8544 C   0  0  0  0  0  0  0  0  0  0  0  0
   18.9441   10.1565   -7.7112 C   0  0  0  0  0  0  0  0  0  0  0  0
   20.4608   10.1564   -7.7189 C   0  0  0  0  0  0  0  0  0  0  0  0
   20.9711   11.2978   -8.5775 C   0  0  0  0  0  0  0  0  0  0  0  0
   22.4877   11.2971   -8.5869 C   0  0  0  0  0  0  0  0  0  0  0  0
   22.9978   12.4398   -9.4438 C   0  0  0  0  0  0  0  0  0  0  0  0
   24.5144   12.4401   -9.4516 C   0  0  0  0  0  0  0  0  0  0  0  0
   25.0245   13.5828  -10.3085 C   0  0  0  0  0  0  0  0  0  0  0  0
   26.5412   13.5842  -10.3146 C   0  0  0  0  0  0  0  0  0  0  0  0
   27.0513   14.7270  -11.1715 C   0  0  0  0  0  0  0  0  0  0  0  0
   28.5679   14.7284  -11.1776 C   0  0  0  0  0  0  0  0  0  0  0  0
   29.0779   15.8711  -12.0345 C   0  0  0  0  0  0  0  0  0  0  0  0
   30.5946   15.8725  -12.0406 C   0  0  0  0  0  0  0  0  0  0  0  0
   31.1046   17.0152  -12.8975 C   0  0  0  0  0  0  0  0  0  0  0  0
   32.6212   17.0166  -12.9036 C   0  0  0  0  0  0  0  0  0  0  0  0
   33.1312   18.1594  -13.7605 C   0  0  0  0  0  0  0  0  0  0  0  0
   34.6479   18.1620  -13.7649 C   0  0  0  0  0  0  0  0  0  0  0  0
   35.1579   19.3047  -14.6219 C   0  0  0  0  0  0  0  0  0  0  0  0
   36.6745   19.3085  -14.6247 C   0  0  0  0  0  0  0  0  0  0  0  0
   37.1846   20.4500  -15.4831 C   0  0  0  0  0  0  0  0  0  0  0  0
   38.7012   20.4550  -15.4845 C   0  0  0  0  0  0  0  0  0  0  0  0
   39.2112   21.5953  -16.3445 C   0  0  0  0  0  0  0  0  0  0  0  0
   40.7279   21.5991  -16.3474 C   0  0  0  0  0  0  0  0  0  0  0  0
   41.2379   22.7382  -17.2091 C   0  0  0  0  0  0  0  0  0  0  0  0
   42.7545   22.7420  -17.2120 C   0  0  0  0  0  0  0  0  0  0  0  0
   43.2645   23.8811  -18.0737 C   0  0  0  0  0  0  0  0  0  0  0  0
   44.7812   23.8849  -18.0766 C   0  0  0  0  0  0  0  0  0  0  0  0
   45.2912   25.0240  -18.9383 C   0  0  0  0  0  0  0  0  0  0  0  0
   46.8078   25.0278  -18.9412 C   0  0  0  0  0  0  0  0  0  0  0  0
   47.3179   26.1669  -19.8029 C   0  0  0  0  0  0  0  0  0  0  0  0
   48.8345   26.1706  -19.8058 C   0  0  0  0  0  0  0  0  0  0  0  0
   49.3445   27.3097  -20.6675 C   0  0  0  0  0  0  0  0  0  0  0  0
   50.8612   27.3123  -20.6719 C   0  0  0  0  0  0  0  0  0  0  0  0
   51.3712   28.4514  -21.5337 C   0  0  0  0  0  0  0  0  0  0  0  0
   52.8878   28.4552  -21.5365 C   0  0  0  0  0  0  0  0  0  0  0  0
   53.3979   29.5931  -22.3998 C   0  0  0  0  0  0  0  0  0  0  0  0
   54.9145   29.5980  -22.4012 C   0  0  0  0  0  0  0  0  0  0  0  0
   55.4245   30.7348  -23.2660 C   0  0  0  0  0  0  0  0  0  0  0  0
   56.9411   30.7386  -23.2689 C   0  0  0  0  0  0  0  0  0  0  0  0
   57.4512   31.8763  -24.1323 C   0  0  0  0  0  0  0  0  0  0  0  0
   58.9678   31.8790  -24.1367 C   0  0  0  0  0  0  0  0  0  0  0  0
   59.4778   33.0169  -25.0000 C   0  0  0  0  0  0  0  0  0  0  0  0
   60.9945   33.0206  -25.0030 C   0  0  0  0  0  0  0  0  0  0  0  0
   61.5045   34.1585  -25.8663 C   0  0  0  0  0  0  0  0  0  0  0  0
   63.0211   34.1623  -25.8691 C   0  0  0  0  0  0  0  0  0  0  0  0
   63.5309   35.3002  -26.7327 C   0  0  0  0  0  0  0  0  0  0  0  0
   65.0470   35.3031  -26.7346 C   0  0  0  0  0  0  0  0  0  0  0  0
   65.5576   36.4418  -27.5983 C   0  0  0  0  0  0  0  0  0  0  0  0
   67.0744   36.4459  -27.6006 C   0  0  0  0  0  0  0  0  0  0  0  0
   67.5847   37.5835  -28.4631 C   0  0  0  0  0  0  0  0  0  0  0  0
   69.1010   37.5885  -28.4676 C   0  0  0  0  0  0  0  0  0  0  0  0
   69.6110   38.7239  -29.3307 C   0  0  0  0  0  0  0  0  0  0  0  0
   71.1278   38.7286  -29.3350 C   0  0  0  0  0  0  0  0  0  0  0  0
   71.6390   39.8652  -30.2012 C   0  0  0  0  0  0  0  0  0  0  0  0
   73.1550   39.8681  -30.2039 C   0  0  0  0  0  0  0  0  0  0  0  0
   73.6661   41.0062  -31.0670 C   0  0  0  0  0  0  0  0  0  0  0  0
   75.1836   41.0104  -31.0725 C   0  0  0  0  0  0  0  0  0  0  0  0
   75.6950   42.1483  -31.9359 C   0  0  0  0  0  0  0  0  0  0  0  0
   77.2134   42.1519  -31.9436 C   0  0  0  0  0  0  0  0  0  0  0  0
   77.7271   43.2901  -32.8072 C   0  0  0  0  0  0  0  0  0  0  0  0
   79.2480   43.2958  -32.8164 C   0  0  0  0  0  0  0  0  0  0  0  0
   79.7656   44.4363  -33.6794 C   0  0  0  0  0  0  0  0  0  0  0  0
   81.2860   44.4506  -33.6928 C   0  0  0  0  0  0  0  0  0  0  0  0
   81.8034   45.5914  -34.5558 C   0  0  0  0  0  0  0  0  0  0  0  0
    0.5808    1.7768   -5.5276 H   0  0  0  0  0  0  0  0  0  0  0  0
    0.5612    2.8408   -4.1108 H   0  0  0  0  0  0  0  0  0  0  0  0
    0.5847    1.0690   -3.9085 H   0  0  0  0  0  0  0  0  0  0  0  0
    2.7436    2.6814   -5.1168 H   0  0  0  0  0  0  0  0  0  0  0  0
    2.5991    1.2532   -2.5376 H   0  0  0  0  0  0  0  0  0  0  0  0
    2.5759    3.0175   -2.7392 H   0  0  0  0  0  0  0  0  0  0  0  0
    4.8084    2.9103   -3.8512 H   0  0  0  0  0  0  0  0  0  0  0  0
    4.8391    1.1577   -3.6458 H   0  0  0  0  0  0  0  0  0  0  0  0
    4.6760    1.4397   -1.1511 H   0  0  0  0  0  0  0  0  0  0  0  0
    4.6513    3.1978   -1.3729 H   0  0  0  0  0  0  0  0  0  0  0  0
    6.9409    1.3512   -2.2281 H   0  0  0  0  0  0  0  0  0  0  0  0
    6.9240    2.4027   -0.7861 H   0  0  0  0  0  0  0  0  0  0  0  0
    8.4109    5.3511   -2.9872 H   0  0  0  0  0  0  0  0  0  0  0  0
    8.4084    4.2794   -4.4152 H   0  0  0  0  0  0  0  0  0  0  0  0
   10.6905    3.4686   -3.7876 H   0  0  0  0  0  0  0  0  0  0  0  0
   10.6904    4.5178   -2.3847 H   0  0  0  0  0  0  0  0  0  0  0  0
   10.4580    6.5269   -3.8770 H   0  0  0  0  0  0  0  0  0  0  0  0
   10.4559    5.4702   -5.2919 H   0  0  0  0  0  0  0  0  0  0  0  0
   12.7241    4.6191   -4.6585 H   0  0  0  0  0  0  0  0  0  0  0  0
   12.7261    5.6777   -3.2450 H   0  0  0  0  0  0  0  0  0  0  0  0
   12.4872    7.6723   -4.7398 H   0  0  0  0  0  0  0  0  0  0  0  0
   12.4871    6.6126   -6.1525 H   0  0  0  0  0  0  0  0  0  0  0  0
   14.7556    5.7666   -5.5184 H   0  0  0  0  0  0  0  0  0  0  0  0
   14.7558    6.8255   -4.1050 H   0  0  0  0  0  0  0  0  0  0  0  0
   14.5156    8.8197   -5.5982 H   0  0  0  0  0  0  0  0  0  0  0  0
   14.5134    7.7613   -7.0119 H   0  0  0  0  0  0  0  0  0  0  0  0
   16.7819    6.9138   -6.3825 H   0  0  0  0  0  0  0  0  0  0  0  0
   16.7851    7.9707   -4.9676 H   0  0  0  0  0  0  0  0  0  0  0  0
   16.5438    9.9670   -6.4577 H   0  0  0  0  0  0  0  0  0  0  0  0
   16.5391    8.9104   -7.8729 H   0  0  0  0  0  0  0  0  0  0  0  0
   18.8074    8.0587   -7.2438 H   0  0  0  0  0  0  0  0  0  0  0  0
   18.8122    9.1167   -5.8297 H   0  0  0  0  0  0  0  0  0  0  0  0
   18.5720   11.1119   -7.3212 H   0  0  0  0  0  0  0  0  0  0  0  0
   18.5650   10.0543   -8.7355 H   0  0  0  0  0  0  0  0  0  0  0  0
   20.8330    9.2004   -8.1076 H   0  0  0  0  0  0  0  0  0  0  0  0
   20.8401   10.2600   -6.6947 H   0  0  0  0  0  0  0  0  0  0  0  0
   20.5998   12.2537   -8.1877 H   0  0  0  0  0  0  0  0  0  0  0  0
   20.5907   11.1950   -9.6012 H   0  0  0  0  0  0  0  0  0  0  0  0
   22.8589   10.3417   -8.9779 H   0  0  0  0  0  0  0  0  0  0  0  0
   22.8682   11.3986   -7.5630 H   0  0  0  0  0  0  0  0  0  0  0  0
   22.6256   13.3951   -9.0536 H   0  0  0  0  0  0  0  0  0  0  0  0
   22.6183   12.3377  -10.4680 H   0  0  0  0  0  0  0  0  0  0  0  0
   24.8868   11.4848   -9.8418 H   0  0  0  0  0  0  0  0  0  0  0  0
   24.8937   12.5423   -8.4274 H   0  0  0  0  0  0  0  0  0  0  0  0
   24.6512   14.5380   -9.9191 H   0  0  0  0  0  0  0  0  0  0  0  0
   24.6463   13.4799  -11.3331 H   0  0  0  0  0  0  0  0  0  0  0  0
   26.9146   12.6291  -10.7040 H   0  0  0  0  0  0  0  0  0  0  0  0
   26.9194   13.6872   -9.2900 H   0  0  0  0  0  0  0  0  0  0  0  0
   26.6778   15.6822  -10.7821 H   0  0  0  0  0  0  0  0  0  0  0  0
   26.6731   14.6240  -12.1961 H   0  0  0  0  0  0  0  0  0  0  0  0
   28.9413   13.7732  -11.5670 H   0  0  0  0  0  0  0  0  0  0  0  0
   28.9461   14.8314  -10.1530 H   0  0  0  0  0  0  0  0  0  0  0  0
   28.7045   16.8263  -11.6451 H   0  0  0  0  0  0  0  0  0  0  0  0
   28.6998   15.7681  -13.0591 H   0  0  0  0  0  0  0  0  0  0  0  0
   30.9680   14.9173  -12.4300 H   0  0  0  0  0  0  0  0  0  0  0  0
   30.9727   15.9755  -11.0160 H   0  0  0  0  0  0  0  0  0  0  0  0
   30.7312   17.9704  -12.5081 H   0  0  0  0  0  0  0  0  0  0  0  0
   30.7265   16.9122  -13.9221 H   0  0  0  0  0  0  0  0  0  0  0  0
   32.9947   16.0615  -13.2929 H   0  0  0  0  0  0  0  0  0  0  0  0
   32.9993   17.1196  -11.8789 H   0  0  0  0  0  0  0  0  0  0  0  0
   32.7567   19.1144  -13.3719 H   0  0  0  0  0  0  0  0  0  0  0  0
   32.7542   18.0556  -14.7854 H   0  0  0  0  0  0  0  0  0  0  0  0
   35.0225   17.2069  -14.1534 H   0  0  0  0  0  0  0  0  0  0  0  0
   35.0248   18.2658  -12.7400 H   0  0  0  0  0  0  0  0  0  0  0  0
   34.7822   20.2597  -14.2342 H   0  0  0  0  0  0  0  0  0  0  0  0
   34.7820   19.2000  -15.6471 H   0  0  0  0  0  0  0  0  0  0  0  0
   37.0504   18.3531  -15.0110 H   0  0  0  0  0  0  0  0  0  0  0  0
   37.0502   19.4144  -13.5995 H   0  0  0  0  0  0  0  0  0  0  0  0
   36.8077   21.4055  -15.0977 H   0  0  0  0  0  0  0  0  0  0  0  0
   36.8098   20.3432  -16.5086 H   0  0  0  0  0  0  0  0  0  0  0  0
   39.0781   19.4991  -15.8686 H   0  0  0  0  0  0  0  0  0  0  0  0
   39.0759   20.5632  -14.4591 H   0  0  0  0  0  0  0  0  0  0  0  0
   38.8354   22.5513  -15.9597 H   0  0  0  0  0  0  0  0  0  0  0  0
   38.8355   21.4878  -17.3696 H   0  0  0  0  0  0  0  0  0  0  0  0
   41.1037   20.6426  -16.7311 H   0  0  0  0  0  0  0  0  0  0  0  0
   41.1036   21.7080  -15.3225 H   0  0  0  0  0  0  0  0  0  0  0  0
   40.8621   23.6948  -16.8255 H   0  0  0  0  0  0  0  0  0  0  0  0
   40.8621   22.6293  -18.2340 H   0  0  0  0  0  0  0  0  0  0  0  0
   43.1303   21.7854  -17.5956 H   0  0  0  0  0  0  0  0  0  0  0  0
   43.1303   22.8509  -16.1871 H   0  0  0  0  0  0  0  0  0  0  0  0
   42.8888   24.8377  -17.6901 H   0  0  0  0  0  0  0  0  0  0  0  0
   42.8888   23.7722  -19.0986 H   0  0  0  0  0  0  0  0  0  0  0  0
   45.1570   22.9283  -18.4602 H   0  0  0  0  0  0  0  0  0  0  0  0
   45.1570   23.9938  -17.0517 H   0  0  0  0  0  0  0  0  0  0  0  0
   44.9154   25.9805  -18.5547 H   0  0  0  0  0  0  0  0  0  0  0  0
   44.9154   24.9150  -19.9632 H   0  0  0  0  0  0  0  0  0  0  0  0
   47.1836   24.0712  -19.3248 H   0  0  0  0  0  0  0  0  0  0  0  0
   47.1836   25.1367  -17.9163 H   0  0  0  0  0  0  0  0  0  0  0  0
   46.9421   27.1235  -19.4193 H   0  0  0  0  0  0  0  0  0  0  0  0
   46.9421   26.0579  -20.8277 H   0  0  0  0  0  0  0  0  0  0  0  0
   49.2102   25.2140  -20.1894 H   0  0  0  0  0  0  0  0  0  0  0  0
   49.2104   26.2795  -18.7810 H   0  0  0  0  0  0  0  0  0  0  0  0
   48.9698   28.2664  -20.2831 H   0  0  0  0  0  0  0  0  0  0  0  0
   48.9677   27.2016  -21.6921 H   0  0  0  0  0  0  0  0  0  0  0  0
   51.2359   26.3557  -21.0563 H   0  0  0  0  0  0  0  0  0  0  0  0
   51.2380   27.4205  -19.6474 H   0  0  0  0  0  0  0  0  0  0  0  0
   50.9955   29.4080  -21.1502 H   0  0  0  0  0  0  0  0  0  0  0  0
   50.9953   28.3424  -22.5585 H   0  0  0  0  0  0  0  0  0  0  0  0
   53.2637   27.4981  -21.9188 H   0  0  0  0  0  0  0  0  0  0  0  0
   53.2635   28.5655  -20.5118 H   0  0  0  0  0  0  0  0  0  0  0  0
   53.0210   30.5502  -22.0185 H   0  0  0  0  0  0  0  0  0  0  0  0
   53.0231   29.4819  -23.4248 H   0  0  0  0  0  0  0  0  0  0  0  0
   55.2914   28.6405  -22.7814 H   0  0  0  0  0  0  0  0  0  0  0  0
   55.2892   29.7105  -21.3763 H   0  0  0  0  0  0  0  0  0  0  0  0
   55.0486   31.6924  -22.8851 H   0  0  0  0  0  0  0  0  0  0  0  0
   55.0488   30.6230  -24.2906 H   0  0  0  0  0  0  0  0  0  0  0  0
   57.3168   29.7814  -23.6511 H   0  0  0  0  0  0  0  0  0  0  0  0
   57.3170   30.8490  -22.2443 H   0  0  0  0  0  0  0  0  0  0  0  0
   57.0765   32.8336  -23.7493 H   0  0  0  0  0  0  0  0  0  0  0  0
   57.0743   31.7667  -25.1567 H   0  0  0  0  0  0  0  0  0  0  0  0
   59.3425   30.9218  -24.5198 H   0  0  0  0  0  0  0  0  0  0  0  0
   59.3447   31.9886  -23.1123 H   0  0  0  0  0  0  0  0  0  0  0  0
   59.1021   33.9740  -24.6178 H   0  0  0  0  0  0  0  0  0  0  0  0
   59.1020   32.9065  -26.0247 H   0  0  0  0  0  0  0  0  0  0  0  0
   61.3703   32.0635  -25.3852 H   0  0  0  0  0  0  0  0  0  0  0  0
   61.3703   33.1310  -23.9783 H   0  0  0  0  0  0  0  0  0  0  0  0
   61.1287   35.1156  -25.4840 H   0  0  0  0  0  0  0  0  0  0  0  0
   61.1287   34.0481  -26.8910 H   0  0  0  0  0  0  0  0  0  0  0  0
   63.3969   33.2052  -26.2514 H   0  0  0  0  0  0  0  0  0  0  0  0
   63.3969   34.2727  -24.8444 H   0  0  0  0  0  0  0  0  0  0  0  0
   63.1553   36.2573  -26.3502 H   0  0  0  0  0  0  0  0  0  0  0  0
   63.1553   35.1898  -27.7572 H   0  0  0  0  0  0  0  0  0  0  0  0
   65.4235   34.3467  -27.1175 H   0  0  0  0  0  0  0  0  0  0  0  0
   65.4235   35.4142  -25.7106 H   0  0  0  0  0  0  0  0  0  0  0  0
   65.1817   37.3988  -27.2163 H   0  0  0  0  0  0  0  0  0  0  0  0
   65.1821   36.3314  -28.6232 H   0  0  0  0  0  0  0  0  0  0  0  0
   67.4500   35.4889  -27.9834 H   0  0  0  0  0  0  0  0  0  0  0  0
   67.4495   36.5551  -26.5756 H   0  0  0  0  0  0  0  0  0  0  0  0
   67.2079   38.5419  -28.0813 H   0  0  0  0  0  0  0  0  0  0  0  0
   67.2078   37.4738  -29.4881 H   0  0  0  0  0  0  0  0  0  0  0  0
   69.4760   36.6299  -28.8501 H   0  0  0  0  0  0  0  0  0  0  0  0
   69.4770   37.6977  -27.4432 H   0  0  0  0  0  0  0  0  0  0  0  0
   69.2361   39.6828  -28.9483 H   0  0  0  0  0  0  0  0  0  0  0  0
   69.2357   38.6159  -30.3560 H   0  0  0  0  0  0  0  0  0  0  0  0
   71.5026   37.7711  -29.7181 H   0  0  0  0  0  0  0  0  0  0  0  0
   71.5051   38.8386  -28.3109 H   0  0  0  0  0  0  0  0  0  0  0  0
   71.2631   40.8235  -29.8210 H   0  0  0  0  0  0  0  0  0  0  0  0
   71.2632   39.7528  -31.2252 H   0  0  0  0  0  0  0  0  0  0  0  0
   73.5314   38.9111  -30.5871 H   0  0  0  0  0  0  0  0  0  0  0  0
   73.5323   39.9786  -29.1797 H   0  0  0  0  0  0  0  0  0  0  0  0
   73.2915   41.9639  -30.6840 H   0  0  0  0  0  0  0  0  0  0  0  0
   73.2895   40.8975  -32.0918 H   0  0  0  0  0  0  0  0  0  0  0  0
   75.5578   40.0523  -31.4552 H   0  0  0  0  0  0  0  0  0  0  0  0
   75.5599   41.1193  -30.0476 H   0  0  0  0  0  0  0  0  0  0  0  0
   75.3204   43.1052  -31.5517 H   0  0  0  0  0  0  0  0  0  0  0  0
   75.3160   42.0391  -32.9596 H   0  0  0  0  0  0  0  0  0  0  0  0
   77.5855   41.1937  -32.3267 H   0  0  0  0  0  0  0  0  0  0  0  0
   77.5901   42.2598  -30.9189 H   0  0  0  0  0  0  0  0  0  0  0  0
   77.3518   44.2467  -32.4229 H   0  0  0  0  0  0  0  0  0  0  0  0
   77.3473   43.1808  -33.8307 H   0  0  0  0  0  0  0  0  0  0  0  0
   79.6189   42.3375  -33.2004 H   0  0  0  0  0  0  0  0  0  0  0  0
   79.6235   43.4018  -31.7912 H   0  0  0  0  0  0  0  0  0  0  0  0
   79.3861   45.3909  -33.2939 H   0  0  0  0  0  0  0  0  0  0  0  0
   79.3836   44.3265  -34.7021 H   0  0  0  0  0  0  0  0  0  0  0  0
   81.6671   43.4986  -34.0804 H   0  0  0  0  0  0  0  0  0  0  0  0
   81.6694   44.5632  -32.6719 H   0  0  0  0  0  0  0  0  0  0  0  0
   81.4511   45.4844  -35.5868 H   0  0  0  0  0  0  0  0  0  0  0  0
   82.8933   45.5965  -34.5614 H   0  0  0  0  0  0  0  0  0  0  0  0
   81.4534   46.5546  -34.1708 H   0  0  0  0  0  0  0  0  0  0  0  0
  1  2  1  0  0  0  0
  1 82  1  0  0  0  0
  1 83  1  0  0  0  0
  1 84  1  0  0  0  0
  2  3  1  0  0  0  0
  2 85  1  0  0  0  0
  3  4  1  0  0  0  0
  3 86  1  0  0  0  0
  3 87  1  0  0  0  0
  4  5  1  0  0  0  0
  4 88  1  0  0  0  0
  4 89  1  0  0  0  0
  5  6  1  0  0  0  0
  5 90  1  0  0  0  0
  5 91  1  0  0  0  0
  6  7  1  0  0  0  0
  6 92  1  0  0  0  0
  6 93  1  0  0  0  0
  7  8  1  0  0  0  0
  8  9  1  0  0  0  0
  9 10  1  0  0  0  0
  9 94  1  0  0  0  0
  9 95  1  0  0  0  0
 10 11  1  0  0  0  0
 10 96  1  0  0  0  0
 10 97  1  0  0  0  0
 11 12  1  0  0  0  0
 11 98  1  0  0  0  0
 11 99  1  0  0  0  0
 12 13  1  0  0  0  0
 12100  1  0  0  0  0
 12101  1  0  0  0  0
 13 14  1  0  0  0  0
 13102  1  0  0  0  0
 13103  1  0  0  0  0
 14 15  1  0  0  0  0
 14104  1  0  0  0  0
 14105  1  0  0  0  0
 15 16  1  0  0  0  0
 15106  1  0  0  0  0
 15107  1  0  0  0  0
 16 17  1  0  0  0  0
 16108  1  0  0  0  0
 16109  1  0  0  0  0
 17 18  1  0  0  0  0
 17110  1  0  0  0  0
 17111  1  0  0  0  0
 18 19  1  0  0  0  0
 18112  1  0  0  0  0
 18113  1  0  0  0  0
 19 20  1  0  0  0  0
 19114  1  0  0  0  0
 19115  1  0  0  0  0
 20 21  1  0  0  0  0
 20116  1  0  0  0  0
 20117  1  0  0  0  0
 21 22  1  0  0  0  0
 21118  1  0  0  0  0
 21119  1  0  0  0  0
 22 23  1  0  0  0  0
 22120  1  0  0  0  0
 22121  1  0  0  0  0
 23 24  1  0  0  0  0
 23122  1  0  0  0  0
 23123  1  0  0  0  0
 24 25  1  0  0  0  0
 24124  1  0  0  0  0
 24125  1  0  0  0  0
 25 26  1  0  0  0  0
 25126  1  0  0  0  0
 25127  1  0  0  0  0
 26 27  1  0  0  0  0
 26128  1  0  0  0  0
 26129  1  0  0  0  0
 27 28  1  0  0  0  0
 27130  1  0  0  0  0
 27131  1  0  0  0  0
 28 29  1  0  0  0  0
 28132  1  0  0  0  0
 28133  1  0  0  0  0
 29 30  1  0  0  0  0
 29134  1  0  0  0  0
 29135  1  0  0  0  0
 30 31  1  0  0  0  0
 30136  1  0  0  0  0
 30137  1  0  0  0  0
 31 32  1  0  0  0  0
 31138  1  0  0  0  0
 31139  1  0  0  0  0
 32 33  1  0  0  0  0
 32140  1  0  0  0  0
 32141  1  0  0  0  0
 33 34  1  0  0  0  0
 33142  1  0  0  0  0
 33143  1  0  0  0  0
 34 35  1  0  0  0  0
 34144  1  0  0  0  0
 34145  1  0  0  0  0
 35 36  1  0  0  0  0
 35146  1  0  0  0  0
 35147  1  0  0  0  0
 36 37  1  0  0  0  0
 36148  1  0  0  0  0
 36149  1  0  0  0  0
 37 38  1  0  0  0  0
 37150  1  0  0  0  0
 37151  1  0  0  0  0
 38 39  1  0  0  0  0
 38152  1  0  0  0  0
 38153  1  0  0  0  0
 39 40  1  0  0  0  0
 39154  1  0  0  0  0
 39155  1  0  0  0  0
 40 41  1  0  0  0  0
 40156  1  0  0  0  0
 40157  1  0  0  0  0
 41 42  1  0  0  0  0
 41158  1  0  0  0  0
 41159  1  0  0  0  0
 42 43  1  0  0  0  0
 42160  1  0  0  0  0
 42161  1  0  0  0  0
 43 44  1  0  0  0  0
 43162  1  0  0  0  0
 43163  1  0  0  0  0
 44 45  1  0  0  0  0
 44164  1  0  0  0  0
 44165  1  0  0  0  0
 45 46  1  0  0  0  0
 45166  1  0  0  0  0
 45167  1  0  0  0  0
 46 47  1  0  0  0  0
 46168  1  0  0  0  0
 46169  1  0  0  0  0
 47 48  1  0  0  0  0
 47170  1  0  0  0  0
 47171  1  0  0  0  0
 48 49  1  0  0  0  0
 48172  1  0  0  0  0
 48173  1  0  0  0  0
 49 50  1  0  0  0  0
 49174  1  0  0  0  0
 49175  1  0  0  0  0
 50 51  1  0  0  0  0
 50176  1  0  0  0  0
 50177  1  0  0  0  0
 51 52  1  0  0  0  0
 51178  1  0  0  0  0
 51179  1  0  0  0  0
 52 53  1  0  0  0  0
 52180  1  0  0  0  0
 52181  1  0  0  0  0
 53 54  1  0  0  0  0
 53182  1  0  0  0  0
 53183  1  0  0  0  0
 54 55  1  0  0  0  0
 54184  1  0  0  0  0
 54185  1  0  0  0  0
 55 56  1  0  0  0  0
 55186  1  0  0  0  0
 55187  1  0  0  0  0
 56 57  1  0  0  0  0
 56188  1  0  0  0  0
 56189  1  0  0  0  0
 57 58  1  0  0  0  0
 57190  1  0  0  0  0
 57191  1  0  0  0  0
 58 59  1  0  0  0  0
 58192  1  0  0  0  0
 58193  1  0  0  0  0
 59 60  1  0  0  0  0
 59194  1  0  0  0  0
 59195  1  0  0  0  0
 60 61  1  0  0  0  0
 60196  1  0  0  0  0
 60197  1  0  0  0  0
 61 62  1  0  0  0  0
 61198  1  0  0  0  0
 61199  1  0  0  0  0
 62 63  1  0  0  0  0
 62200  1  0  0  0  0
 62201  1  0  0  0  0
 63 64  1  0  0  0  0
 63202  1  0  0  0  0
 63203  1  0  0  0  0
 64 65  1  0  0  0  0
 64204  1  0  0  0  0
 64205  1  0  0  0  0
 65 66  1  0  0  0  0
 65206  1  0  0  0  0
 65207  1  0  0  0  0
 66 67  1  0  0  0  0
 66208  1  0  0  0  0
 66209  1  0  0  0  0
 67 68  1  0  0  0  0
 67210  1  0  0  0  0
 67211  1  0  0  0  0
 68 69  1  0  0  0  0
 68212  1  0  0  0  0
 68213  1  0  0  0  0
 69 70  1  0  0  0  0
 69214  1  0  0  0  0
 69215  1  0  0  0  0
 70 71  1  0  0  0  0
 70216  1  0  0  0  0
 70217  1  0  0  0  0
 71 72  1  0  0  0  0
 71218  1  0  0  0  0
 71219  1  0  0  0  0
 72 73  1  0  0  0  0
 72220  1  0  0  0  0
 72221  1  0  0  0  0
 73 74  1  0  0  0  0
 73222  1  0  0  0  0
 73223  1  0  0  0  0
 74 75  1  0  0  0  0
 74224  1  0  0  0  0
 74225  1  0  0  0  0
 75 76  1  0  0  0  0
 75226  1  0  0  0  0
 75227  1  0  0  0  0
 76 77  1  0  0  0  0
 76228  1  0  0  0  0
 76229  1  0  0  0  0
 77 78  1  0  0  0  0
 77230  1  0  0  0  0
 77231  1  0  0  0  0
 78 79  1  0  0  0  0
 78232  1  0  0  0  0
 78233  1  0  0  0  0
 79 80  1  0  0  0  0
 79234  1  0  0  0  0
 79235  1  0  0  0  0
 80 81  1  0  0  0  0
 80236  1  0  0  0  0
 80237  1  0  0  0  0
 81238  1  0  0  0  0
 81239  1  0  0  0  0
 81240  1  0  0  0  0
M  END
$$$$
