
 OpenBabel04232216453D

 44 46  0  0  0  0  0  0  0  0999 V2000
    1.8944    0.5272    1.0133 C   0  0  0  0  0  0  0  0  0  0  0  0
    3.3160    0.7753    0.5883 C   0  0  0  0  0  0  0  0  0  0  0  0
    3.6245    0.3039   -0.7720 C   0  0  0  0  0  0  0  0  0  0  0  0
    4.4280   -0.7517   -0.9852 C   0  0  0  0  0  0  0  0  0  0  0  0
    4.9182   -1.7818   -0.0002 C   0  0  0  0  0  0  0  0  0  0  0  0
    5.1152   -0.6848   -2.2428 C   0  0  0  0  0  0  0  0  0  0  0  0
    6.0498    0.2712   -2.4148 C   0  0  0  0  0  0  0  0  0  0  0  0
    6.8014    0.3320   -3.7409 C   0  0  0  0  0  0  0  0  0  0  0  0
    8.0542   -0.4988   -3.5898 C   0  0  0  0  0  0  0  0  0  0  0  0
    8.8860    0.0502   -2.4403 C   0  0  0  0  0  0  0  0  0  0  0  0
    8.0939    0.6014   -1.2344 C   0  0  0  0  0  0  0  0  0  0  0  0
    6.6039    1.2194   -1.2997 C   0  0  0  0  0  0  0  0  0  0  0  0
    6.2562    1.0879    0.3213 C   0  0  0  0  0  0  0  0  0  0  0  0
    6.9441    0.4099    1.1046 O   0  0  0  0  0  0  0  0  0  0  0  0
    5.2954    1.9783    0.8443 N   0  0  0  0  0  0  0  0  0  0  0  0
    5.8346    2.9190    1.7508 C   0  0  0  0  0  3  0  0  0  0  0  0
    6.5329    4.0685    1.1535 C   0  0  0  0  0  0  0  0  0  0  0  0
    5.7671    4.9661    0.4805 C   0  0  0  0  0  0  0  0  0  0  0  0
    4.8982    4.4817   -0.5879 C   0  0  0  0  0  0  0  0  0  0  0  0
    5.0918    3.4922   -1.4813 C   0  0  0  0  0  0  0  0  0  0  0  0
    6.3177    2.7013   -1.7654 C   0  0  0  0  0  0  0  0  0  0  0  0
    4.0957    1.4686    1.3662 N   0  0  0  0  0  0  0  0  0  0  0  0
    1.2542    0.4399    0.1263 H   0  0  0  0  0  0  0  0  0  0  0  0
    1.5320    1.3752    1.6004 H   0  0  0  0  0  0  0  0  0  0  0  0
    1.8354   -0.3950    1.5904 H   0  0  0  0  0  0  0  0  0  0  0  0
    3.3530    1.0009   -1.5520 H   0  0  0  0  0  0  0  0  0  0  0  0
    5.7266   -1.4118    0.6288 H   0  0  0  0  0  0  0  0  0  0  0  0
    4.1143   -2.1100    0.6615 H   0  0  0  0  0  0  0  0  0  0  0  0
    5.3251   -2.6644   -0.5073 H   0  0  0  0  0  0  0  0  0  0  0  0
    4.8698   -1.4114   -3.0161 H   0  0  0  0  0  0  0  0  0  0  0  0
    7.0994    1.3517   -4.0052 H   0  0  0  0  0  0  0  0  0  0  0  0
    6.1929   -0.0250   -4.5775 H   0  0  0  0  0  0  0  0  0  0  0  0
    8.6474   -0.4902   -4.5121 H   0  0  0  0  0  0  0  0  0  0  0  0
    7.7870   -1.5500   -3.4112 H   0  0  0  0  0  0  0  0  0  0  0  0
    9.5725    0.8176   -2.8055 H   0  0  0  0  0  0  0  0  0  0  0  0
    9.5253   -0.7744   -2.0830 H   0  0  0  0  0  0  0  0  0  0  0  0
    8.7494    1.2378   -0.6299 H   0  0  0  0  0  0  0  0  0  0  0  0
    7.9864   -0.3335   -0.6546 H   0  0  0  0  0  0  0  0  0  0  0  0
    6.3412    2.4680    2.6047 H   0  0  0  0  0  0  0  0  0  0  0  0
    7.4096    3.7071    0.6217 H   0  0  0  0  0  0  0  0  0  0  0  0
    5.1512    5.5880    1.1455 H   0  0  0  0  0  0  0  0  0  0  0  0
    3.8917    4.9363   -0.5428 H   0  0  0  0  0  0  0  0  0  0  0  0
    4.2258    3.2353   -2.0934 H   0  0  0  0  0  0  0  0  0  0  0  0
    6.5210    2.8732   -2.8226 H   0  0  0  0  0  0  0  0  0  0  0  0
  1  2  1  0  0  0  0
  1 23  1  0  0  0  0
  1 24  1  0  0  0  0
  1 25  1  0  0  0  0
  2  3  1  0  0  0  0
  2 22  2  3  0  0  0
  3  4  2  3  0  0  0
  3 26  1  0  0  0  0
  4  5  1  0  0  0  0
  4  6  1  0  0  0  0
  5 27  1  0  0  0  0
  5 28  1  0  0  0  0
  5 29  1  0  0  0  0
  6  7  2  3  0  0  0
  6 30  1  0  0  0  0
  7  8  1  0  0  0  0
  7 12  1  0  0  0  0
  8  9  1  0  0  0  0
  8 31  1  0  0  0  0
  8 32  1  0  0  0  0
  9 10  1  0  0  0  0
  9 33  1  0  0  0  0
  9 34  1  0  0  0  0
 10 11  1  0  0  0  0
 10 35  1  0  0  0  0
 10 36  1  0  0  0  0
 11 12  1  0  0  0  0
 11 37  1  0  0  0  0
 11 38  1  0  0  0  0
 12 13  1  0  0  0  0
 12 21  2  0  0  0  0
 13 14  2  0  0  0  0
 13 15  1  0  0  0  0
 15 16  1  0  0  0  0
 15 22  1  0  0  0  0
 16 17  1  0  0  0  0
 16 39  1  0  0  0  0
 17 18  2  3  0  0  0
 17 40  1  0  0  0  0
 18 19  1  0  0  0  0
 18 41  1  0  0  0  0
 19 20  2  3  0  0  0
 19 42  1  0  0  0  0
 20 21  1  0  0  0  0
 20 43  1  0  0  0  0
 21 44  1  0  0  0  0
M  END
$$$$
