
 OpenBabel04232216593D

 54 56  0  0  0  0  0  0  0  0999 V2000
   -0.9686    6.6529    3.5888 O   0  0  0  0  0  0  0  0  0  0  0  0
   -0.5320    7.2276    2.5832 C   0  0  0  0  0  0  0  0  0  0  0  0
   -0.7099    8.8956    2.4793 C   0  0  0  0  0  0  0  0  0  0  0  0
   -1.4259   10.4185    3.2623 C   0  0  0  0  0  0  0  0  0  0  0  0
   -0.3556   11.5725    2.5441 C   0  0  0  0  0  0  0  0  0  0  0  0
    0.8729   11.3486    1.5653 C   0  0  0  0  0  0  0  0  0  0  0  0
    1.4205   10.0667    1.5024 O   0  0  0  0  0  0  0  0  0  0  0  0
    2.3931    9.9563    0.4291 C   0  0  0  0  0  0  0  0  0  0  0  0
    2.4708    8.4783    0.2949 C   0  0  0  0  0  0  0  0  0  0  0  0
    3.5142    7.6502   -0.5311 C   0  0  0  0  0  0  0  0  0  0  0  0
    2.9973    6.2882   -0.1235 C   0  0  0  0  0  0  0  0  0  0  0  0
    2.7672    4.8100   -0.2266 C   0  0  0  0  0  0  0  0  0  0  0  0
   -0.9847   12.7885    2.3375 C   0  0  0  0  0  0  0  0  0  0  0  0
   -1.7534   13.2689    3.5165 C   0  0  0  0  0  0  0  0  0  0  0  0
   -1.9263   14.7731    3.6506 C   0  0  0  0  0  0  0  0  0  0  0  0
   -3.0132   15.0988    4.6621 C   0  0  0  0  0  0  0  0  0  0  0  0
   -3.2061   16.6059    4.8078 C   0  0  0  0  0  0  0  0  0  0  0  0
   -4.3009   16.9195    5.8272 C   0  0  0  0  0  0  0  0  0  0  0  0
   -4.5015   18.4239    5.9866 C   0  0  0  0  0  0  0  0  0  0  0  0
   -5.5908   18.7299    7.0012 C   0  0  0  0  0  0  0  0  0  0  0  0
    0.1278    6.2965    1.5618 C   0  0  0  0  0  0  0  0  0  0  0  0
    1.1049    5.2934    1.7530 C   0  0  0  0  0  0  0  0  0  0  0  0
    1.3845    4.7167    0.4775 N   0  0  0  0  0  0  0  0  0  0  0  0
    0.2992    5.0294   -0.2932 N   0  0  0  0  0  0  0  0  0  0  0  0
   -0.3614    6.0483    0.2699 N   0  0  0  0  0  0  0  0  0  0  0  0
   -0.9494    8.6996    3.5497 H   0  0  0  0  0  0  0  0  0  0  0  0
   -1.5530    8.8431    1.7687 H   0  0  0  0  0  0  0  0  0  0  0  0
    1.6460   12.0861    1.8074 H   0  0  0  0  0  0  0  0  0  0  0  0
    0.5186   11.6448    0.5666 H   0  0  0  0  0  0  0  0  0  0  0  0
    3.3348   10.4051    0.7405 H   0  0  0  0  0  0  0  0  0  0  0  0
    2.0158   10.3997   -0.4970 H   0  0  0  0  0  0  0  0  0  0  0  0
    1.4613    8.2195   -0.0733 H   0  0  0  0  0  0  0  0  0  0  0  0
    2.4911    8.1011    1.3311 H   0  0  0  0  0  0  0  0  0  0  0  0
    4.5370    7.8416   -0.2009 H   0  0  0  0  0  0  0  0  0  0  0  0
    3.4165    7.8458   -1.6034 H   0  0  0  0  0  0  0  0  0  0  0  0
    2.0183    6.5162   -0.5410 H   0  0  0  0  0  0  0  0  0  0  0  0
    3.1499    6.3463    0.9597 H   0  0  0  0  0  0  0  0  0  0  0  0
    3.4652    4.1917    0.3471 H   0  0  0  0  0  0  0  0  0  0  0  0
    2.6421    4.4280   -1.2467 H   0  0  0  0  0  0  0  0  0  0  0  0
   -0.5494   13.5438    1.6568 H   0  0  0  0  0  0  0  0  0  0  0  0
   -2.1607   15.2014    2.6671 H   0  0  0  0  0  0  0  0  0  0  0  0
   -0.9607   15.2242    3.9118 H   0  0  0  0  0  0  0  0  0  0  0  0
   -2.7552   14.6649    5.6367 H   0  0  0  0  0  0  0  0  0  0  0  0
   -3.9596   14.6367    4.3527 H   0  0  0  0  0  0  0  0  0  0  0  0
   -3.4737   17.0444    3.8390 H   0  0  0  0  0  0  0  0  0  0  0  0
   -2.2667   17.0688    5.1238 H   0  0  0  0  0  0  0  0  0  0  0  0
   -4.0453   16.4898    6.8038 H   0  0  0  0  0  0  0  0  0  0  0  0
   -5.2420   16.4531    5.5122 H   0  0  0  0  0  0  0  0  0  0  0  0
   -4.7728   18.8662    5.0215 H   0  0  0  0  0  0  0  0  0  0  0  0
   -3.5656   18.8941    6.3082 H   0  0  0  0  0  0  0  0  0  0  0  0
   -6.5474   18.2976    6.6906 H   0  0  0  0  0  0  0  0  0  0  0  0
   -5.7222   19.8115    7.1020 H   0  0  0  0  0  0  0  0  0  0  0  0
   -5.3337   18.3245    7.9849 H   0  0  0  0  0  0  0  0  0  0  0  0
    1.7231    5.0040    2.5926 H   0  0  0  0  0  0  0  0  0  0  0  0
  1  2  2  0  0  0  0
  2  3  1  0  0  0  0
  2 21  1  0  0  0  0
  3  4  1  0  0  0  0
  3 26  1  0  0  0  0
  3 27  1  0  0  0  0
  4  5  1  0  0  0  0
  4 14  2  0  0  0  0
  5  6  1  0  0  0  0
  5 13  2  0  0  0  0
  6  7  1  0  0  0  0
  6 28  1  0  0  0  0
  6 29  1  0  0  0  0
  7  8  1  0  0  0  0
  8  9  1  0  0  0  0
  8 30  1  0  0  0  0
  8 31  1  0  0  0  0
  9 10  1  0  0  0  0
  9 32  1  0  0  0  0
  9 33  1  0  0  0  0
 10 11  1  0  0  0  0
 10 34  1  0  0  0  0
 10 35  1  0  0  0  0
 11 12  1  0  0  0  0
 11 36  1  0  0  0  0
 11 37  1  0  0  0  0
 12 23  1  0  0  0  0
 12 38  1  0  0  0  0
 12 39  1  0  0  0  0
 13 14  1  0  0  0  0
 13 40  1  0  0  0  0
 14 15  1  0  0  0  0
 15 16  1  0  0  0  0
 15 41  1  0  0  0  0
 15 42  1  0  0  0  0
 16 17  1  0  0  0  0
 16 43  1  0  0  0  0
 16 44  1  0  0  0  0
 17 18  1  0  0  0  0
 17 45  1  0  0  0  0
 17 46  1  0  0  0  0
 18 19  1  0  0  0  0
 18 47  1  0  0  0  0
 18 48  1  0  0  0  0
 19 20  1  0  0  0  0
 19 49  1  0  0  0  0
 19 50  1  0  0  0  0
 20 51  1  0  0  0  0
 20 52  1  0  0  0  0
 20 53  1  0  0  0  0
 21 22  2  0  0  0  0
 21 25  1  0  0  0  0
 22 23  1  0  0  0  0
 22 54  1  0  0  0  0
 23 24  1  0  0  0  0
 24 25  2  0  0  0  0
M  END
$$$$
