
 OpenBabel04232216523D

 68 69  0  0  1  0  0  0  0  0999 V2000
    1.9213   -3.2771   -2.1688 C   0  0  0  0  0  0  0  0  0  0  0  0
    3.2545   -2.9058   -1.5024 C   0  0  0  0  0  0  0  0  0  0  0  0
    4.6987   -3.1408   -2.2700 C   0  0  0  0  0  0  0  0  0  0  0  0
    6.1786   -3.6814   -1.4935 C   0  0  3  0  0  0  0  0  0  0  0  0
    5.7445   -3.5532    0.0095 C   0  0  0  0  0  0  0  0  0  0  0  0
    6.6229   -2.5594    0.7529 C   0  0  3  0  0  0  0  0  0  0  0  0
    6.0225   -1.6595    1.8170 C   0  0  0  0  0  0  0  0  0  0  0  0
    7.6075   -3.4123    1.4480 C   0  0  0  0  0  0  0  0  0  0  0  0
    9.0131   -2.8041    1.3013 C   0  0  0  0  0  0  0  0  0  0  0  0
    9.7879   -4.0272    1.3609 C   0  0  0  0  0  0  0  0  0  0  0  0
   10.9765   -4.5173    0.5861 C   0  0  0  0  0  0  0  0  0  0  0  0
   12.0325   -3.9758    0.4699 O   0  0  0  0  0  0  0  0  0  0  0  0
   10.6198   -5.8965    0.1425 C   0  0  0  0  0  0  0  0  0  0  0  0
    9.7949   -6.0854   -0.9145 C   0  0  0  0  0  0  0  0  0  0  0  0
    8.8684   -5.4385   -1.9629 C   0  0  0  0  0  0  0  0  0  0  0  0
    9.2222   -6.4277   -3.2445 C   0  0  0  0  0  0  0  0  0  0  0  0
    9.8956   -7.9672   -3.3192 C   0  0  0  0  0  0  0  0  0  0  0  0
    9.0673   -9.1363   -2.7025 C   0  0  0  0  0  0  0  0  0  0  0  0
    7.5568   -9.0810   -2.9990 C   0  0  0  0  0  0  0  0  0  0  0  0
    6.6478   -9.1940   -1.7492 C   0  0  0  0  0  0  0  0  0  0  0  0
    6.3301   -7.8988   -0.9636 C   0  0  0  0  0  0  0  0  0  0  0  0
    6.6508   -7.9167    0.5784 C   0  0  0  0  0  0  0  0  0  0  0  0
    8.1210   -7.5943    0.7143 C   0  0  0  0  0  0  0  0  0  0  0  0
    9.0534   -7.3279    1.8881 C   0  0  0  0  0  0  0  0  0  0  0  0
   10.5292   -6.9557    1.3372 C   0  0  0  0  0  0  0  0  0  0  0  0
    7.6767   -4.6179   -2.0072 C   0  0  0  0  0  0  0  0  0  0  0  0
    1.0894   -2.7873   -1.6281 H   0  0  0  0  0  0  0  0  0  0  0  0
    1.7241   -4.3503   -2.0849 H   0  0  0  0  0  0  0  0  0  0  0  0
    1.8477   -2.9580   -3.2080 H   0  0  0  0  0  0  0  0  0  0  0  0
    3.1701   -3.3863   -0.5238 H   0  0  0  0  0  0  0  0  0  0  0  0
    3.1635   -1.8213   -1.3028 H   0  0  0  0  0  0  0  0  0  0  0  0
    4.9525   -2.0632   -2.3614 H   0  0  0  0  0  0  0  0  0  0  0  0
    4.5824   -3.4487   -3.3092 H   0  0  0  0  0  0  0  0  0  0  0  0
    6.6781   -2.7279   -1.7327 H   0  0  0  0  0  0  0  0  0  0  0  0
    5.6067   -4.5497    0.4532 H   0  0  0  0  0  0  0  0  0  0  0  0
    4.7793   -3.0940    0.1396 H   0  0  0  0  0  0  0  0  0  0  0  0
    7.0748   -1.8891    0.0164 H   0  0  0  0  0  0  0  0  0  0  0  0
    5.5982   -2.2303    2.6482 H   0  0  0  0  0  0  0  0  0  0  0  0
    5.2702   -0.9848    1.4098 H   0  0  0  0  0  0  0  0  0  0  0  0
    6.8371   -1.0447    2.2254 H   0  0  0  0  0  0  0  0  0  0  0  0
    7.5150   -4.4109    0.9901 H   0  0  0  0  0  0  0  0  0  0  0  0
    7.3630   -3.6451    2.4853 H   0  0  0  0  0  0  0  0  0  0  0  0
    9.2271   -2.1331    2.1299 H   0  0  0  0  0  0  0  0  0  0  0  0
    9.1507   -2.2660    0.3529 H   0  0  0  0  0  0  0  0  0  0  0  0
    9.1392   -4.5599    0.6325 H   0  0  0  0  0  0  0  0  0  0  0  0
    9.6859   -4.5701    2.2809 H   0  0  0  0  0  0  0  0  0  0  0  0
    9.7209   -7.1579   -1.0536 H   0  0  0  0  0  0  0  0  0  0  0  0
    8.3717   -6.9252   -2.8453 H   0  0  0  0  0  0  0  0  0  0  0  0
   10.2203   -5.9919   -3.3178 H   0  0  0  0  0  0  0  0  0  0  0  0
   10.8977   -7.9962   -2.8576 H   0  0  0  0  0  0  0  0  0  0  0  0
   10.0510   -8.2035   -4.3821 H   0  0  0  0  0  0  0  0  0  0  0  0
    9.2581   -9.1947   -1.6287 H   0  0  0  0  0  0  0  0  0  0  0  0
    9.4655  -10.0929   -3.0807 H   0  0  0  0  0  0  0  0  0  0  0  0
    7.3324   -9.9208   -3.6688 H   0  0  0  0  0  0  0  0  0  0  0  0
    7.2749   -8.2093   -3.5976 H   0  0  0  0  0  0  0  0  0  0  0  0
    7.0277   -9.9733   -1.0835 H   0  0  0  0  0  0  0  0  0  0  0  0
    5.6834   -9.5484   -2.1324 H   0  0  0  0  0  0  0  0  0  0  0  0
    5.2681   -7.6628   -1.0892 H   0  0  0  0  0  0  0  0  0  0  0  0
    6.8385   -7.0579   -1.4314 H   0  0  0  0  0  0  0  0  0  0  0  0
    6.3781   -8.8694    1.0319 H   0  0  0  0  0  0  0  0  0  0  0  0
    6.0665   -7.1179    1.0554 H   0  0  0  0  0  0  0  0  0  0  0  0
    8.0800   -6.6100    0.2688 H   0  0  0  0  0  0  0  0  0  0  0  0
    8.6399   -8.3401    0.1161 H   0  0  0  0  0  0  0  0  0  0  0  0
    9.1183   -8.1982    2.5482 H   0  0  0  0  0  0  0  0  0  0  0  0
    8.6626   -6.5026    2.4978 H   0  0  0  0  0  0  0  0  0  0  0  0
   11.0385   -7.8808    1.0419 H   0  0  0  0  0  0  0  0  0  0  0  0
   11.0947   -6.5662    2.1959 H   0  0  0  0  0  0  0  0  0  0  0  0
    8.2181   -3.7866   -1.5044 H   0  0  0  0  0  0  0  0  0  0  0  0
  1  2  1  0  0  0  0
  1 27  1  0  0  0  0
  1 28  1  0  0  0  0
  1 29  1  0  0  0  0
  2  3  1  0  0  0  0
  2 30  1  0  0  0  0
  2 31  1  0  0  0  0
  3  4  1  0  0  0  0
  3 32  1  0  0  0  0
  3 33  1  0  0  0  0
  4  5  1  0  0  0  0
  4 26  1  0  0  0  0
  4 34  1  0  0  0  0
  5  6  1  0  0  0  0
  5 35  1  0  0  0  0
  5 36  1  0  0  0  0
  6  7  1  0  0  0  0
  6  8  1  0  0  0  0
  6 37  1  0  0  0  0
  7 38  1  0  0  0  0
  7 39  1  0  0  0  0
  7 40  1  0  0  0  0
  8  9  1  0  0  0  0
  8 41  1  0  0  0  0
  8 42  1  0  0  0  0
  9 10  1  0  0  0  0
  9 43  1  0  0  0  0
  9 44  1  0  0  0  0
 10 11  1  0  0  0  0
 10 45  1  0  0  0  0
 10 46  1  0  0  0  0
 11 12  2  0  0  0  0
 11 13  1  0  0  0  0
 13 14  2  3  0  0  0
 13 25  1  0  0  0  0
 14 15  1  0  0  0  0
 14 47  1  0  0  0  0
 15 16  1  0  0  0  0
 15 26  2  3  0  0  0
 16 17  1  0  0  0  0
 16 48  1  0  0  0  0
 16 49  1  0  0  0  0
 17 18  1  0  0  0  0
 17 50  1  0  0  0  0
 17 51  1  0  0  0  0
 18 19  1  0  0  0  0
 18 52  1  0  0  0  0
 18 53  1  0  0  0  0
 19 20  1  0  0  0  0
 19 54  1  0  0  0  0
 19 55  1  0  0  0  0
 20 21  1  0  0  0  0
 20 56  1  0  0  0  0
 20 57  1  0  0  0  0
 21 22  1  0  0  0  0
 21 58  1  0  0  0  0
 21 59  1  0  0  0  0
 22 23  1  0  0  0  0
 22 60  1  0  0  0  0
 22 61  1  0  0  0  0
 23 24  1  0  0  0  0
 23 62  1  0  0  0  0
 23 63  1  0  0  0  0
 24 25  1  0  0  0  0
 24 64  1  0  0  0  0
 24 65  1  0  0  0  0
 25 66  1  0  0  0  0
 25 67  1  0  0  0  0
 26 68  1  0  0  0  0
M  END
$$$$
