
 OpenBabel04232216443D

 52 53  0  0  0  0  0  0  0  0999 V2000
    6.2410    1.7501   -0.7866 C   0  0  0  0  0  0  0  0  0  0  0  0
    7.3637    2.5496    0.6890 C   0  0  0  0  0  0  0  0  0  0  0  0
    5.4671    2.4956    1.4122 C   0  0  0  0  0  0  0  0  0  0  0  0
    3.6180    2.1956    0.5965 C   0  0  0  0  0  0  0  0  0  0  0  0
    6.3667    1.7001    1.2236 C   0  0  0  0  0  0  0  0  0  0  0  0
    6.3266   -0.0919    0.6126 C   0  0  0  0  0  0  0  0  0  0  0  0
    5.6936    3.4488    0.5616 C   0  0  0  0  0  0  0  0  0  0  0  0
    6.4821    4.5205    0.1660 C   0  0  0  0  0  0  0  0  0  0  0  0
    5.2082    4.7662    0.0619 C   0  0  0  0  0  0  0  0  0  0  0  0
    3.8240    4.7539   -0.1445 C   0  0  0  0  0  0  0  0  0  0  0  0
    2.6298    5.5425   -0.5625 C   0  0  0  0  0  0  0  0  0  0  0  0
    2.4384    6.8098    0.1995 C   0  0  0  0  0  0  0  0  0  0  0  0
    7.4260    5.2325   -0.1898 C   0  0  0  0  0  0  0  0  0  0  0  0
    8.6870    4.8732   -0.5166 C   0  0  0  0  0  0  0  0  0  0  0  0
    9.4854    5.8668   -0.7334 C   0  0  0  0  0  0  0  0  0  0  0  0
   10.5959    5.2690   -1.3518 C   0  0  0  0  0  0  0  0  0  0  0  0
   11.5828    6.0844   -1.3351 C   0  0  0  0  0  0  0  0  0  0  0  0
   12.8612    5.5148   -1.5052 C   0  0  0  0  0  0  0  0  0  0  0  0
   13.6127    6.6003   -1.3692 C   0  0  0  0  0  0  0  0  0  0  0  0
   14.4056    6.3174   -0.2542 C   0  0  0  0  0  0  0  0  0  0  0  0
   13.5391    6.4350    0.8041 C   0  0  0  0  0  0  0  0  0  0  0  0
   11.8163    5.5754    1.2706 C   0  0  0  0  0  0  0  0  0  0  0  0
   10.8260    4.1784    1.0600 C   0  0  0  0  0  0  0  0  0  0  0  0
    9.0379    3.0817    1.2239 C   0  0  0  0  0  0  0  0  0  0  0  0
    4.9894    1.8891   -0.8554 H   0  0  0  0  0  0  0  0  0  0  0  0
    5.3541    1.1600   -0.1641 H   0  0  0  0  0  0  0  0  0  0  0  0
    5.8363    0.9227   -1.5515 H   0  0  0  0  0  0  0  0  0  0  0  0
    2.7577    2.9773    0.4320 H   0  0  0  0  0  0  0  0  0  0  0  0
    3.3464    1.8335   -0.5225 H   0  0  0  0  0  0  0  0  0  0  0  0
    2.9739    1.5596    1.2196 H   0  0  0  0  0  0  0  0  0  0  0  0
    5.3344   -0.5573    0.3580 H   0  0  0  0  0  0  0  0  0  0  0  0
    6.7495   -0.7992    1.3133 H   0  0  0  0  0  0  0  0  0  0  0  0
    6.7625   -0.2427   -0.4434 H   0  0  0  0  0  0  0  0  0  0  0  0
    3.6610    4.7362    0.9352 H   0  0  0  0  0  0  0  0  0  0  0  0
    3.8243    4.0607   -1.0045 H   0  0  0  0  0  0  0  0  0  0  0  0
    1.7387    4.9025   -0.4048 H   0  0  0  0  0  0  0  0  0  0  0  0
    2.7307    5.7380   -1.6265 H   0  0  0  0  0  0  0  0  0  0  0  0
    2.2333    6.6405    1.2635 H   0  0  0  0  0  0  0  0  0  0  0  0
    1.5709    7.2805   -0.2566 H   0  0  0  0  0  0  0  0  0  0  0  0
    3.3156    7.4493    0.0966 H   0  0  0  0  0  0  0  0  0  0  0  0
    7.1596    6.2436   -0.3835 H   0  0  0  0  0  0  0  0  0  0  0  0
    9.1850    3.9269   -0.6440 H   0  0  0  0  0  0  0  0  0  0  0  0
    9.1710    6.8690   -0.4684 H   0  0  0  0  0  0  0  0  0  0  0  0
   10.8865    4.2039   -1.3874 H   0  0  0  0  0  0  0  0  0  0  0  0
   11.3667    6.9867   -0.7236 H   0  0  0  0  0  0  0  0  0  0  0  0
   13.1927    4.5955   -0.9261 H   0  0  0  0  0  0  0  0  0  0  0  0
   13.0637    7.5676   -1.2396 H   0  0  0  0  0  0  0  0  0  0  0  0
   15.3244    5.7847   -0.4787 H   0  0  0  0  0  0  0  0  0  0  0  0
   13.8743    7.5109    0.9272 H   0  0  0  0  0  0  0  0  0  0  0  0
   12.8565    5.3144    1.8435 H   0  0  0  0  0  0  0  0  0  0  0  0
   11.6971    3.4716    1.0100 H   0  0  0  0  0  0  0  0  0  0  0  0
    9.4771    2.5007    0.4146 H   0  0  0  0  0  0  0  0  0  0  0  0
  1  2  1  0  0  0  0
  1 25  1  0  0  0  0
  1 26  1  0  0  0  0
  1 27  1  0  0  0  0
  2  3  1  0  0  0  0
  2 24  2  3  0  0  0
  3  4  1  0  0  0  0
  3  5  2  3  0  0  0
  4 28  1  0  0  0  0
  4 29  1  0  0  0  0
  4 30  1  0  0  0  0
  5  6  1  0  0  0  0
  5  7  1  0  0  0  0
  6 31  1  0  0  0  0
  6 32  1  0  0  0  0
  6 33  1  0  0  0  0
  7  8  1  0  0  0  0
  7  9  2  0  0  0  0
  8  9  1  0  0  0  0
  8 13  2  3  0  0  0
  9 10  1  0  0  0  0
 10 11  1  0  0  0  0
 10 34  1  0  0  0  0
 10 35  1  0  0  0  0
 11 12  1  0  0  0  0
 11 36  1  0  0  0  0
 11 37  1  0  0  0  0
 12 38  1  0  0  0  0
 12 39  1  0  0  0  0
 12 40  1  0  0  0  0
 13 14  1  0  0  0  0
 13 41  1  0  0  0  0
 14 15  2  3  0  0  0
 14 42  1  0  0  0  0
 15 16  1  0  0  0  0
 15 43  1  0  0  0  0
 16 17  2  3  0  0  0
 16 44  1  0  0  0  0
 17 18  1  0  0  0  0
 17 45  1  0  0  0  0
 18 19  2  3  0  0  0
 18 46  1  0  0  0  0
 19 20  1  0  0  0  0
 19 47  1  0  0  0  0
 20 21  2  3  0  0  0
 20 48  1  0  0  0  0
 21 22  1  0  0  0  0
 21 49  1  0  0  0  0
 22 23  2  3  0  0  0
 22 50  1  0  0  0  0
 23 24  1  0  0  0  0
 23 51  1  0  0  0  0
 24 52  1  0  0  0  0
M  END
$$$$
