
 OpenBabel04232216483D

 62 62  0  0  1  0  0  0  0  0999 V2000
    8.5825    5.2875   -1.4043 C   0  0  0  0  0  0  0  0  0  0  0  0
    9.8485    4.7771   -2.3482 C   0  0  0  0  0  0  0  0  0  0  0  0
    8.7616    3.5484   -2.8112 C   0  0  0  0  0  0  0  0  0  0  0  0
    7.8267    2.5755   -2.2910 C   0  0  0  0  0  0  0  0  0  0  0  0
    6.4455    2.0424   -3.1466 C   0  0  0  0  0  0  0  0  0  0  0  0
    5.0315    2.7447   -2.9910 C   0  0  0  0  0  0  0  0  0  0  0  0
    3.6010    2.3101   -3.4209 N   0  0  0  0  0  0  0  0  0  0  0  0
    3.3574    1.6224   -4.6377 C   0  0  3  0  0  0  0  0  0  0  0  0
    3.8051    0.3259   -4.5514 N   0  0  0  0  0  0  0  0  0  0  0  0
    1.8630    1.5241   -5.0490 N   0  0  0  0  0  0  0  0  0  0  0  0
    0.8514    1.1118   -4.1698 O   0  0  0  0  0  0  0  0  0  0  0  0
    6.5358    1.4372   -4.3002 N   0  0  0  0  0  0  0  0  0  0  0  0
    7.5696    2.0309   -4.9571 C   0  0  0  0  0  0  0  0  0  0  0  0
    8.7595    1.5722   -4.8541 N   0  0  0  0  0  0  0  0  0  0  0  0
    9.7015    2.5266   -5.1135 C   0  0  0  0  0  0  0  0  0  0  0  0
   10.9085    2.5502   -4.5465 C   0  0  0  0  0  0  0  0  0  0  0  0
   11.7546    3.5100   -5.1481 C   0  0  0  0  0  0  0  0  0  0  0  0
   13.0793    3.5543   -5.0804 C   0  0  0  0  0  0  0  0  0  0  0  0
   13.5844    4.2729   -6.1715 C   0  0  0  0  0  0  0  0  0  0  0  0
   14.8711    4.3358   -6.4675 C   0  0  0  0  0  0  0  0  0  0  0  0
   15.1912    5.0374   -7.6811 C   0  0  0  0  0  0  0  0  0  0  0  0
   16.4634    5.3645   -7.7655 C   0  0  0  0  0  0  0  0  0  0  0  0
   17.7149    4.7060   -7.6111 C   0  0  0  0  0  0  0  0  0  0  0  0
   18.7734    5.5363   -7.5870 C   0  0  0  0  0  0  0  0  0  0  0  0
   18.4779    7.0144   -7.6822 C   0  0  0  0  0  0  0  0  0  0  0  0
   17.9702    7.4956   -6.4833 C   0  0  0  0  0  0  0  0  0  0  0  0
   16.4062    7.9542   -5.9741 C   0  0  0  0  0  0  0  0  0  0  0  0
   15.2527    7.4950   -5.2164 C   0  0  0  0  0  0  0  0  0  0  0  0
   13.9054    6.7552   -4.1511 C   0  0  0  0  0  0  0  0  0  0  0  0
   12.4426    6.2774   -3.8972 C   0  0  0  0  0  0  0  0  0  0  0  0
   11.2219    5.5270   -2.6978 C   0  0  0  0  0  0  0  0  0  0  0  0
    7.9628    6.0603   -1.8716 H   0  0  0  0  0  0  0  0  0  0  0  0
    8.7337    5.2098   -0.3239 H   0  0  0  0  0  0  0  0  0  0  0  0
    7.7118    4.5790   -1.3659 H   0  0  0  0  0  0  0  0  0  0  0  0
    8.3342    3.9922   -3.6870 H   0  0  0  0  0  0  0  0  0  0  0  0
    7.9128    2.0395   -1.3250 H   0  0  0  0  0  0  0  0  0  0  0  0
    5.1696    3.5583   -3.7128 H   0  0  0  0  0  0  0  0  0  0  0  0
    4.9228    3.2033   -2.0120 H   0  0  0  0  0  0  0  0  0  0  0  0
    2.8414    2.8886   -3.0806 H   0  0  0  0  0  0  0  0  0  0  0  0
    3.7579    2.1631   -5.4991 H   0  0  0  0  0  0  0  0  0  0  0  0
    3.2749   -0.4507   -4.1841 H   0  0  0  0  0  0  0  0  0  0  0  0
    4.8076    0.1684   -4.7273 H   0  0  0  0  0  0  0  0  0  0  0  0
    1.6460    1.5160   -6.0119 H   0  0  0  0  0  0  0  0  0  0  0  0
    1.1503    1.1179   -3.2789 H   0  0  0  0  0  0  0  0  0  0  0  0
    7.3173    3.0611   -5.3164 H   0  0  0  0  0  0  0  0  0  0  0  0
    9.3940    3.4478   -5.6322 H   0  0  0  0  0  0  0  0  0  0  0  0
   11.2781    1.8700   -3.7964 H   0  0  0  0  0  0  0  0  0  0  0  0
   11.2701    4.1765   -5.8629 H   0  0  0  0  0  0  0  0  0  0  0  0
   13.7050    2.9938   -4.3880 H   0  0  0  0  0  0  0  0  0  0  0  0
   12.9021    4.7792   -6.8608 H   0  0  0  0  0  0  0  0  0  0  0  0
   15.6234    3.9600   -5.7986 H   0  0  0  0  0  0  0  0  0  0  0  0
   14.4797    5.8269   -7.9724 H   0  0  0  0  0  0  0  0  0  0  0  0
   16.5658    5.8456   -6.7834 H   0  0  0  0  0  0  0  0  0  0  0  0
   17.7442    3.6701   -7.2563 H   0  0  0  0  0  0  0  0  0  0  0  0
   19.7412    5.1915   -7.2183 H   0  0  0  0  0  0  0  0  0  0  0  0
   17.9786    7.0864   -8.6741 H   0  0  0  0  0  0  0  0  0  0  0  0
   18.7699    8.2091   -6.1510 H   0  0  0  0  0  0  0  0  0  0  0  0
   16.2859    8.8196   -6.6206 H   0  0  0  0  0  0  0  0  0  0  0  0
   15.9142    6.7765   -4.6585 H   0  0  0  0  0  0  0  0  0  0  0  0
   13.6098    6.9345   -5.2477 H   0  0  0  0  0  0  0  0  0  0  0  0
   11.8254    6.3618   -4.8069 H   0  0  0  0  0  0  0  0  0  0  0  0
   11.8776    4.6409   -2.7818 H   0  0  0  0  0  0  0  0  0  0  0  0
  1  2  1  0  0  0  0
  1 32  1  0  0  0  0
  1 33  1  0  0  0  0
  1 34  1  0  0  0  0
  2  3  1  0  0  0  0
  2 31  2  3  0  0  0
  3  4  2  3  0  0  0
  3 35  1  0  0  0  0
  4  5  1  0  0  0  0
  4 36  1  0  0  0  0
  5  6  1  0  0  0  0
  5 12  2  3  0  0  0
  6  7  1  0  0  0  0
  6 37  1  0  0  0  0
  6 38  1  0  0  0  0
  7  8  1  0  0  0  0
  7 39  1  0  0  0  0
  8  9  1  0  0  0  0
  8 10  1  0  0  0  0
  8 40  1  0  0  0  0
  9 41  1  0  0  0  0
  9 42  1  0  0  0  0
 10 11  1  0  0  0  0
 10 43  1  0  0  0  0
 11 44  1  0  0  0  0
 12 13  1  0  0  0  0
 13 14  2  3  0  0  0
 13 45  1  0  0  0  0
 14 15  1  0  0  0  0
 15 16  2  3  0  0  0
 15 46  1  0  0  0  0
 16 17  1  0  0  0  0
 16 47  1  0  0  0  0
 17 18  2  3  0  0  0
 17 48  1  0  0  0  0
 18 19  1  0  0  0  0
 18 49  1  0  0  0  0
 19 20  2  3  0  0  0
 19 50  1  0  0  0  0
 20 21  1  0  0  0  0
 20 51  1  0  0  0  0
 21 22  2  3  0  0  0
 21 52  1  0  0  0  0
 22 23  1  0  0  0  0
 22 53  1  0  0  0  0
 23 24  2  3  0  0  0
 23 54  1  0  0  0  0
 24 25  1  0  0  0  0
 24 55  1  0  0  0  0
 25 26  2  3  0  0  0
 25 56  1  0  0  0  0
 26 27  1  0  0  0  0
 26 57  1  0  0  0  0
 27 28  2  3  0  0  0
 27 58  1  0  0  0  0
 28 29  1  0  0  0  0
 28 59  1  0  0  0  0
 29 30  2  3  0  0  0
 29 60  1  0  0  0  0
 30 31  1  0  0  0  0
 30 61  1  0  0  0  0
 31 62  1  0  0  0  0
M  END
$$$$
