
 OpenBabel04232217003D

141140  0  0  0  0  0  0  0  0999 V2000
    0.8968   -0.0362    0.0362 O   0  0  0  0  0  0  0  0  0  0  0  0
    2.3146   -0.0392    0.0546 C   0  0  0  0  0  0  0  0  0  0  0  0
    2.8244    0.4872   -1.2739 C   0  0  0  0  0  0  0  0  0  0  0  0
    4.3445    0.5005   -1.2909 C   0  0  0  0  0  0  0  0  0  0  0  0
    4.8593    1.0272   -2.6203 C   0  0  0  0  0  0  0  0  0  0  0  0
    6.3789    1.0356   -2.6251 C   0  0  0  0  0  0  0  0  0  0  0  0
    6.8921    1.5601   -3.9541 C   0  0  0  0  0  0  0  0  0  0  0  0
    8.4098    1.5661   -3.9584 C   0  0  0  0  0  0  0  0  0  0  0  0
    8.9208    2.0904   -5.2874 C   0  0  0  0  0  0  0  0  0  0  0  0
   10.4378    2.0943   -5.2917 C   0  0  0  0  0  0  0  0  0  0  0  0
   10.9484    2.6167   -6.6212 C   0  0  0  0  0  0  0  0  0  0  0  0
   12.4652    2.6226   -6.6242 C   0  0  0  0  0  0  0  0  0  0  0  0
   12.9755    3.1467   -7.9529 C   0  0  0  0  0  0  0  0  0  0  0  0
   14.4922    3.1540   -7.9553 C   0  0  0  0  0  0  0  0  0  0  0  0
   15.0023    3.6785   -9.2839 C   0  0  0  0  0  0  0  0  0  0  0  0
   16.5190    3.6840   -9.2870 C   0  0  0  0  0  0  0  0  0  0  0  0
   17.0290    4.2101  -10.6149 C   0  0  0  0  0  0  0  0  0  0  0  0
   18.5457    4.2138  -10.6187 C   0  0  0  0  0  0  0  0  0  0  0  0
   19.0557    4.7378  -11.9474 C   0  0  0  0  0  0  0  0  0  0  0  0
   20.5722    4.7435  -11.9502 C   0  0  0  0  0  0  0  0  0  0  0  0
   21.0821    5.2659  -13.2793 C   0  0  0  0  0  0  0  0  0  0  0  0
   22.5982    5.2694  -13.2825 C   0  0  0  0  0  0  0  0  0  0  0  0
   23.1070    5.7934  -14.6107 C   0  0  0  0  0  0  0  0  0  0  0  0
   24.6221    5.7942  -14.6126 C   0  0  0  0  0  0  0  0  0  0  0  0
   25.1291    6.3175  -15.9390 C   0  0  0  0  0  0  0  0  0  0  0  0
   26.6419    6.3148  -15.9373 C   0  0  0  0  0  0  0  0  0  0  0  0
   27.1334    6.8379  -17.2631 C   0  0  0  0  0  0  0  0  0  0  0  0
   28.6362    6.8401  -17.2740 C   0  0  0  0  0  0  0  0  0  0  0  0
   29.0770    7.3651  -18.6044 C   0  0  0  0  0  0  0  0  0  0  0  0
   30.4721    7.3420  -18.5508 O   0  0  0  0  0  0  0  0  0  0  0  0
   30.9660    7.8193  -19.7608 C   0  0  0  0  0  0  0  0  0  0  0  0
   32.3429    7.7671  -19.6341 O   0  0  0  0  0  0  0  0  0  0  0  0
   32.7506    8.2594  -20.8822 O   0  0  0  0  0  0  0  0  0  0  0  0
   34.1393    8.2624  -20.8878 O   0  0  0  0  0  0  0  0  0  0  0  0
   34.5390    8.7506  -22.1250 O   0  0  0  0  0  0  0  0  0  0  0  0
   35.9225    8.7425  -22.1048 O   0  0  0  0  0  0  0  0  0  0  0  0
   36.3438    9.2249  -23.3268 O   0  0  0  0  0  0  0  0  0  0  0  0
   37.7210    9.2046  -23.2751 O   0  0  0  0  0  0  0  0  0  0  0  0
   38.1488    9.6834  -24.4886 O   0  0  0  0  0  0  0  0  0  0  0  0
   39.5200    9.6616  -24.4329 O   0  0  0  0  0  0  0  0  0  0  0  0
   39.9305   10.1414  -25.6487 O   0  0  0  0  0  0  0  0  0  0  0  0
   41.2977   10.1232  -25.6025 O   0  0  0  0  0  0  0  0  0  0  0  0
   41.6958   10.6038  -26.8203 O   0  0  0  0  0  0  0  0  0  0  0  0
   43.0611   10.5852  -26.7728 O   0  0  0  0  0  0  0  0  0  0  0  0
   43.4625   11.0644  -27.9872 O   0  0  0  0  0  0  0  0  0  0  0  0
   44.8270   11.0428  -27.9322 O   0  0  0  0  0  0  0  0  0  0  0  0
   45.2316   11.5213  -29.1447 O   0  0  0  0  0  0  0  0  0  0  0  0
   46.5953   11.4992  -29.0883 O   0  0  0  0  0  0  0  0  0  0  0  0
   46.9960   11.9779  -30.3014 O   0  0  0  0  0  0  0  0  0  0  0  0
   48.3586   11.9572  -30.2486 O   0  0  0  0  0  0  0  0  0  0  0  0
   48.7566   12.4361  -31.4622 O   0  0  0  0  0  0  0  0  0  0  0  0
   50.1195   12.4149  -31.4082 O   0  0  0  0  0  0  0  0  0  0  0  0
   50.5179   12.8940  -32.6224 O   0  0  0  0  0  0  0  0  0  0  0  0
   51.8791   12.8737  -32.5705 O   0  0  0  0  0  0  0  0  0  0  0  0
   52.2709   13.3530  -33.7851 O   0  0  0  0  0  0  0  0  0  0  0  0
   53.6386   13.3312  -33.7297 O   0  0  0  0  0  0  0  0  0  0  0  0
   54.0394   13.8094  -34.9413 O   0  0  0  0  0  0  0  0  0  0  0  0
   55.4078   13.7820  -34.8717 O   0  0  0  0  0  0  0  0  0  0  0  0
   55.8096   14.2631  -36.0906 O   0  0  0  0  0  0  0  0  0  0  0  0
   57.1768   14.2423  -36.0379 O   0  0  0  0  0  0  0  0  0  0  0  0
   57.5541   14.7214  -37.2517 O   0  0  0  0  0  0  0  0  0  0  0  0
   58.9323   14.7026  -37.2039 O   0  0  0  0  0  0  0  0  0  0  0  0
   59.3297   15.1812  -38.4166 O   0  0  0  0  0  0  0  0  0  0  0  0
   60.6895   15.1560  -38.3527 O   0  0  0  0  0  0  0  0  0  0  0  0
   61.1103   15.6418  -39.5837 O   0  0  0  0  0  0  0  0  0  0  0  0
   62.4579   15.6196  -39.5272 O   0  0  0  0  0  0  0  0  0  0  0  0
   62.8565   16.0985  -40.7406 O   0  0  0  0  0  0  0  0  0  0  0  0
   64.2143   16.0766  -40.6848 O   0  0  0  0  0  0  0  0  0  0  0  0
   64.6167   16.5567  -41.9014 O   0  0  0  0  0  0  0  0  0  0  0  0
   65.9856   16.5377  -41.8531 O   0  0  0  0  0  0  0  0  0  0  0  0
   66.3992   17.0180  -43.0704 O   0  0  0  0  0  0  0  0  0  0  0  0
   67.7737   16.9975  -43.0182 O   0  0  0  0  0  0  0  0  0  0  0  0
   68.2001   17.4801  -44.2368 O   0  0  0  0  0  0  0  0  0  0  0  0
   69.5826   17.4593  -44.1902 O   0  0  0  0  0  0  0  0  0  0  0  0
   70.0134   17.9357  -45.4186 O   0  0  0  0  0  0  0  0  0  0  0  0
   71.4051   17.9466  -45.3887 O   0  0  0  0  0  0  0  0  0  0  0  0
   71.8283   18.4298  -46.6326 O   0  0  0  0  0  0  0  0  0  0  0  0
   73.2308   18.3838  -46.6607 O   0  0  0  0  0  0  0  0  0  0  0  0
   73.6756   18.8922  -47.9126 O   0  0  0  0  0  0  0  0  0  0  0  0
   75.1030   18.9399  -47.8982 O   0  0  0  0  0  0  0  0  0  0  0  0
   75.5474   19.7739  -46.8034 O   0  0  0  0  0  0  0  0  0  0  0  0
    0.6054   -0.3775    0.8983 H   0  0  0  0  0  0  0  0  0  0  0  0
    2.6632   -1.0631    0.2235 H   0  0  0  0  0  0  0  0  0  0  0  0
    2.6582    0.5946    0.8785 H   0  0  0  0  0  0  0  0  0  0  0  0
    2.4313    1.4965   -1.4497 H   0  0  0  0  0  0  0  0  0  0  0  0
    2.4383   -0.1331   -2.0926 H   0  0  0  0  0  0  0  0  0  0  0  0
    4.7282   -0.5133   -1.1221 H   0  0  0  0  0  0  0  0  0  0  0  0
    4.7211    1.1287   -0.4743 H   0  0  0  0  0  0  0  0  0  0  0  0
    4.4820    2.0427   -2.7921 H   0  0  0  0  0  0  0  0  0  0  0  0
    4.4890    0.3997   -3.4402 H   0  0  0  0  0  0  0  0  0  0  0  0
    6.7596    0.0212   -2.4534 H   0  0  0  0  0  0  0  0  0  0  0  0
    6.7525    1.6646   -1.8076 H   0  0  0  0  0  0  0  0  0  0  0  0
    6.5148    2.5756   -4.1262 H   0  0  0  0  0  0  0  0  0  0  0  0
    6.5197    0.9322   -4.7728 H   0  0  0  0  0  0  0  0  0  0  0  0
    8.7885    0.5509   -3.7872 H   0  0  0  0  0  0  0  0  0  0  0  0
    8.7839    2.1943   -3.1406 H   0  0  0  0  0  0  0  0  0  0  0  0
    8.5441    3.1064   -5.4586 H   0  0  0  0  0  0  0  0  0  0  0  0
    8.5465    1.4633   -6.1059 H   0  0  0  0  0  0  0  0  0  0  0  0
   10.8151    1.0787   -5.1197 H   0  0  0  0  0  0  0  0  0  0  0  0
   10.8126    2.7227   -4.4743 H   0  0  0  0  0  0  0  0  0  0  0  0
   10.5702    3.6318   -6.7945 H   0  0  0  0  0  0  0  0  0  0  0  0
   10.5753    1.9873   -7.4386 H   0  0  0  0  0  0  0  0  0  0  0  0
   12.8436    1.6073   -6.4524 H   0  0  0  0  0  0  0  0  0  0  0  0
   12.8385    3.2509   -5.8061 H   0  0  0  0  0  0  0  0  0  0  0  0
   12.5964    4.1616   -8.1252 H   0  0  0  0  0  0  0  0  0  0  0  0
   12.6032    2.5178   -8.7710 H   0  0  0  0  0  0  0  0  0  0  0  0
   14.8715    2.1392   -7.7832 H   0  0  0  0  0  0  0  0  0  0  0  0
   14.8646    3.7829   -7.1372 H   0  0  0  0  0  0  0  0  0  0  0  0
   14.6241    4.6938   -9.4554 H   0  0  0  0  0  0  0  0  0  0  0  0
   14.6289    3.0505  -10.1023 H   0  0  0  0  0  0  0  0  0  0  0  0
   16.8970    2.6684   -9.1167 H   0  0  0  0  0  0  0  0  0  0  0  0
   16.8925    4.3109   -8.4679 H   0  0  0  0  0  0  0  0  0  0  0  0
   16.6520    5.2262  -10.7844 H   0  0  0  0  0  0  0  0  0  0  0  0
   16.6544    3.5840  -11.4341 H   0  0  0  0  0  0  0  0  0  0  0  0
   18.9227    3.1979  -10.4479 H   0  0  0  0  0  0  0  0  0  0  0  0
   18.9203    4.8410   -9.8004 H   0  0  0  0  0  0  0  0  0  0  0  0
   18.6775    5.7531  -12.1196 H   0  0  0  0  0  0  0  0  0  0  0  0
   18.6825    4.1093  -12.7655 H   0  0  0  0  0  0  0  0  0  0  0  0
   20.9506    3.7284  -11.7773 H   0  0  0  0  0  0  0  0  0  0  0  0
   20.9457    5.3728  -11.1329 H   0  0  0  0  0  0  0  0  0  0  0  0
   20.7054    6.2817  -13.4517 H   0  0  0  0  0  0  0  0  0  0  0  0
   20.7079    4.6377  -14.0971 H   0  0  0  0  0  0  0  0  0  0  0  0
   22.9756    4.2536  -13.1120 H   0  0  0  0  0  0  0  0  0  0  0  0
   22.9734    5.8968  -12.4646 H   0  0  0  0  0  0  0  0  0  0  0  0
   22.7322    6.8101  -14.7816 H   0  0  0  0  0  0  0  0  0  0  0  0
   22.7324    5.1672  -15.4298 H   0  0  0  0  0  0  0  0  0  0  0  0
   24.9993    4.7781  -14.4438 H   0  0  0  0  0  0  0  0  0  0  0  0
   24.9993    6.4213  -13.7955 H   0  0  0  0  0  0  0  0  0  0  0  0
   24.7572    7.3354  -16.1110 H   0  0  0  0  0  0  0  0  0  0  0  0
   24.7551    5.6930  -16.7599 H   0  0  0  0  0  0  0  0  0  0  0  0
   27.0212    5.2989  -15.7725 H   0  0  0  0  0  0  0  0  0  0  0  0
   27.0235    6.9427  -15.1230 H   0  0  0  0  0  0  0  0  0  0  0  0
   26.7618    7.8559  -17.4347 H   0  0  0  0  0  0  0  0  0  0  0  0
   26.7595    6.2130  -18.0838 H   0  0  0  0  0  0  0  0  0  0  0  0
   29.0457    5.8339  -17.1146 H   0  0  0  0  0  0  0  0  0  0  0  0
   29.0479    7.4646  -16.4702 H   0  0  0  0  0  0  0  0  0  0  0  0
   28.7295    8.3921  -18.7657 H   0  0  0  0  0  0  0  0  0  0  0  0
   28.7272    6.7266  -19.4238 H   0  0  0  0  0  0  0  0  0  0  0  0
   30.6536    8.8571  -19.9420 H   0  0  0  0  0  0  0  0  0  0  0  0
   30.6512    7.1865  -20.6020 H   0  0  0  0  0  0  0  0  0  0  0  0
   76.4890   19.6117  -46.9566 H   0  0  0  0  0  0  0  0  0  0  0  0
  1  2  1  0  0  0  0
  1 82  1  0  0  0  0
  2  3  1  0  0  0  0
  2 83  1  0  0  0  0
  2 84  1  0  0  0  0
  3  4  1  0  0  0  0
  3 85  1  0  0  0  0
  3 86  1  0  0  0  0
  4  5  1  0  0  0  0
  4 87  1  0  0  0  0
  4 88  1  0  0  0  0
  5  6  1  0  0  0  0
  5 89  1  0  0  0  0
  5 90  1  0  0  0  0
  6  7  1  0  0  0  0
  6 91  1  0  0  0  0
  6 92  1  0  0  0  0
  7  8  1  0  0  0  0
  7 93  1  0  0  0  0
  7 94  1  0  0  0  0
  8  9  1  0  0  0  0
  8 95  1  0  0  0  0
  8 96  1  0  0  0  0
  9 10  1  0  0  0  0
  9 97  1  0  0  0  0
  9 98  1  0  0  0  0
 10 11  1  0  0  0  0
 10 99  1  0  0  0  0
 10100  1  0  0  0  0
 11 12  1  0  0  0  0
 11101  1  0  0  0  0
 11102  1  0  0  0  0
 12 13  1  0  0  0  0
 12103  1  0  0  0  0
 12104  1  0  0  0  0
 13 14  1  0  0  0  0
 13105  1  0  0  0  0
 13106  1  0  0  0  0
 14 15  1  0  0  0  0
 14107  1  0  0  0  0
 14108  1  0  0  0  0
 15 16  1  0  0  0  0
 15109  1  0  0  0  0
 15110  1  0  0  0  0
 16 17  1  0  0  0  0
 16111  1  0  0  0  0
 16112  1  0  0  0  0
 17 18  1  0  0  0  0
 17113  1  0  0  0  0
 17114  1  0  0  0  0
 18 19  1  0  0  0  0
 18115  1  0  0  0  0
 18116  1  0  0  0  0
 19 20  1  0  0  0  0
 19117  1  0  0  0  0
 19118  1  0  0  0  0
 20 21  1  0  0  0  0
 20119  1  0  0  0  0
 20120  1  0  0  0  0
 21 22  1  0  0  0  0
 21121  1  0  0  0  0
 21122  1  0  0  0  0
 22 23  1  0  0  0  0
 22123  1  0  0  0  0
 22124  1  0  0  0  0
 23 24  1  0  0  0  0
 23125  1  0  0  0  0
 23126  1  0  0  0  0
 24 25  1  0  0  0  0
 24127  1  0  0  0  0
 24128  1  0  0  0  0
 25 26  1  0  0  0  0
 25129  1  0  0  0  0
 25130  1  0  0  0  0
 26 27  1  0  0  0  0
 26131  1  0  0  0  0
 26132  1  0  0  0  0
 27 28  1  0  0  0  0
 27133  1  0  0  0  0
 27134  1  0  0  0  0
 28 29  1  0  0  0  0
 28135  1  0  0  0  0
 28136  1  0  0  0  0
 29 30  1  0  0  0  0
 29137  1  0  0  0  0
 29138  1  0  0  0  0
 30 31  1  0  0  0  0
 31 32  1  0  0  0  0
 31139  1  0  0  0  0
 31140  1  0  0  0  0
 32 33  1  0  0  0  0
 33 34  1  0  0  0  0
 34 35  1  0  0  0  0
 35 36  1  0  0  0  0
 36 37  1  0  0  0  0
 37 38  1  0  0  0  0
 38 39  1  0  0  0  0
 39 40  1  0  0  0  0
 40 41  1  0  0  0  0
 41 42  1  0  0  0  0
 42 43  1  0  0  0  0
 43 44  1  0  0  0  0
 44 45  1  0  0  0  0
 45 46  1  0  0  0  0
 46 47  1  0  0  0  0
 47 48  1  0  0  0  0
 48 49  1  0  0  0  0
 49 50  1  0  0  0  0
 50 51  1  0  0  0  0
 51 52  1  0  0  0  0
 52 53  1  0  0  0  0
 53 54  1  0  0  0  0
 54 55  1  0  0  0  0
 55 56  1  0  0  0  0
 56 57  1  0  0  0  0
 57 58  1  0  0  0  0
 58 59  1  0  0  0  0
 59 60  1  0  0  0  0
 60 61  1  0  0  0  0
 61 62  1  0  0  0  0
 62 63  1  0  0  0  0
 63 64  1  0  0  0  0
 64 65  1  0  0  0  0
 65 66  1  0  0  0  0
 66 67  1  0  0  0  0
 67 68  1  0  0  0  0
 68 69  1  0  0  0  0
 69 70  1  0  0  0  0
 70 71  1  0  0  0  0
 71 72  1  0  0  0  0
 72 73  1  0  0  0  0
 73 74  1  0  0  0  0
 74 75  1  0  0  0  0
 75 76  1  0  0  0  0
 76 77  1  0  0  0  0
 77 78  1  0  0  0  0
 78 79  1  0  0  0  0
 79 80  1  0  0  0  0
 80 81  1  0  0  0  0
 81141  1  0  0  0  0
M  END
$$$$
