
 OpenBabel04232216503D

 77 77  0  0  0  0  0  0  0  0999 V2000
    4.6615    0.9193   -5.1844 C   0  0  0  0  0  0  0  0  0  0  0  0
    6.1858   -0.4452   -5.7714 C   0  0  0  0  0  0  0  0  0  0  0  0
    4.7822   -0.7688   -5.8438 C   0  0  0  0  0  0  0  0  0  0  0  0
    3.7162   -1.5310   -4.9009 C   0  0  0  0  0  0  0  0  0  0  0  0
    3.9235   -2.6913   -5.4967 C   0  0  0  0  0  0  0  0  0  0  0  0
    5.0856   -3.0728   -4.7113 C   0  0  0  0  0  0  0  0  0  0  0  0
    6.0170   -3.2405   -5.8469 C   0  0  0  0  0  0  0  0  0  0  0  0
    7.0379   -3.8447   -5.0025 C   0  0  0  0  0  0  0  0  0  0  0  0
    7.6151   -4.5110   -6.1094 C   0  0  0  0  0  0  0  0  0  0  0  0
    8.2155   -5.5630   -5.5952 C   0  0  0  0  0  0  0  0  0  0  0  0
    9.2809   -6.0689   -6.3843 C   0  0  0  0  0  0  0  0  0  0  0  0
   10.2584   -5.3727   -5.7610 C   0  0  0  0  0  0  0  0  0  0  0  0
   10.1723   -3.9693   -6.0431 C   0  0  0  0  0  0  0  0  0  0  0  0
    9.9775   -2.6365   -6.2121 C   0  0  0  0  0  0  0  0  0  0  0  0
   11.8572   -3.4626   -6.6604 C   0  0  0  0  0  0  0  0  0  0  0  0
   13.5916   -4.9834   -6.9629 C   0  0  0  0  0  0  0  0  0  0  0  0
   15.1944   -6.2264   -7.8276 C   0  0  0  0  0  0  0  0  0  0  0  0
   17.0097   -7.0732   -8.0696 C   0  0  0  0  0  0  0  0  0  0  0  0
   18.3217   -8.4202   -9.1479 C   0  0  0  0  0  0  0  0  0  0  0  0
   20.1095   -8.8663   -9.0581 C   0  0  0  0  0  0  0  0  0  0  0  0
   21.3972   -7.9345   -9.3365 C   0  0  0  0  0  0  0  0  0  0  0  0
   21.5190   -6.7895   -8.3446 C   0  0  0  0  0  0  0  0  0  0  0  0
   21.7105   -7.2553   -6.9015 C   0  0  0  0  0  0  0  0  0  0  0  0
   21.7331   -6.0682   -5.9423 C   0  0  0  0  0  0  0  0  0  0  0  0
   21.8897   -6.5426   -4.5017 C   0  0  0  0  0  0  0  0  0  0  0  0
   21.9045   -5.3566   -3.5466 C   0  0  0  0  0  0  0  0  0  0  0  0
   22.0626   -5.8284   -2.1067 C   0  0  0  0  0  0  0  0  0  0  0  0
   22.0768   -4.6433   -1.1607 C   0  0  0  0  0  0  0  0  0  0  0  0
    8.1842   -1.3495   -5.6518 C   0  0  0  0  0  0  0  0  0  0  0  0
    3.8854    1.3183   -6.0663 H   0  0  0  0  0  0  0  0  0  0  0  0
    4.2874    1.4291   -4.2517 H   0  0  0  0  0  0  0  0  0  0  0  0
    3.4750    0.3996   -4.8444 H   0  0  0  0  0  0  0  0  0  0  0  0
    3.8368   -0.4146   -6.4918 H   0  0  0  0  0  0  0  0  0  0  0  0
    3.5572   -1.4448   -3.8033 H   0  0  0  0  0  0  0  0  0  0  0  0
    4.1183   -2.5313   -6.5940 H   0  0  0  0  0  0  0  0  0  0  0  0
    4.7770   -3.9566   -4.1815 H   0  0  0  0  0  0  0  0  0  0  0  0
    5.5521   -2.3989   -3.9203 H   0  0  0  0  0  0  0  0  0  0  0  0
    6.3770   -2.4159   -6.5137 H   0  0  0  0  0  0  0  0  0  0  0  0
    5.5736   -3.8227   -6.6716 H   0  0  0  0  0  0  0  0  0  0  0  0
    6.6237   -4.5361   -4.2680 H   0  0  0  0  0  0  0  0  0  0  0  0
    7.7430   -3.2873   -4.3486 H   0  0  0  0  0  0  0  0  0  0  0  0
    7.8076   -3.9935   -7.0728 H   0  0  0  0  0  0  0  0  0  0  0  0
    8.4422   -5.3642   -4.5026 H   0  0  0  0  0  0  0  0  0  0  0  0
    9.0456   -5.6712   -7.3950 H   0  0  0  0  0  0  0  0  0  0  0  0
   11.0641   -5.9352   -5.2789 H   0  0  0  0  0  0  0  0  0  0  0  0
   10.2147   -4.1386   -7.1676 H   0  0  0  0  0  0  0  0  0  0  0  0
   12.5181   -2.9964   -5.8602 H   0  0  0  0  0  0  0  0  0  0  0  0
   11.9308   -3.4391   -7.7082 H   0  0  0  0  0  0  0  0  0  0  0  0
   13.6679   -5.4938   -5.9907 H   0  0  0  0  0  0  0  0  0  0  0  0
   14.3398   -4.1701   -6.9704 H   0  0  0  0  0  0  0  0  0  0  0  0
   15.1071   -6.0236   -8.9103 H   0  0  0  0  0  0  0  0  0  0  0  0
   14.7650   -7.2405   -7.6757 H   0  0  0  0  0  0  0  0  0  0  0  0
   17.4060   -7.6063   -7.1596 H   0  0  0  0  0  0  0  0  0  0  0  0
   17.8010   -6.2991   -8.3245 H   0  0  0  0  0  0  0  0  0  0  0  0
   18.2903   -8.1575  -10.2037 H   0  0  0  0  0  0  0  0  0  0  0  0
   17.9122   -9.4291   -9.0752 H   0  0  0  0  0  0  0  0  0  0  0  0
   20.3317   -9.7014   -9.8291 H   0  0  0  0  0  0  0  0  0  0  0  0
   20.3729   -9.4586   -8.1512 H   0  0  0  0  0  0  0  0  0  0  0  0
   21.3964   -7.5495  -10.3667 H   0  0  0  0  0  0  0  0  0  0  0  0
   22.3707   -8.4910   -9.3000 H   0  0  0  0  0  0  0  0  0  0  0  0
   20.6107   -6.1937   -8.4333 H   0  0  0  0  0  0  0  0  0  0  0  0
   22.3636   -6.1382   -8.6143 H   0  0  0  0  0  0  0  0  0  0  0  0
   22.6461   -7.8218   -6.8003 H   0  0  0  0  0  0  0  0  0  0  0  0
   20.8929   -7.9244   -6.6155 H   0  0  0  0  0  0  0  0  0  0  0  0
   20.8027   -5.4952   -6.0395 H   0  0  0  0  0  0  0  0  0  0  0  0
   22.5585   -5.3925   -6.1979 H   0  0  0  0  0  0  0  0  0  0  0  0
   22.8209   -7.1125   -4.3963 H   0  0  0  0  0  0  0  0  0  0  0  0
   21.0646   -7.2162   -4.2395 H   0  0  0  0  0  0  0  0  0  0  0  0
   20.9730   -4.7863   -3.6496 H   0  0  0  0  0  0  0  0  0  0  0  0
   22.7283   -4.6809   -3.8078 H   0  0  0  0  0  0  0  0  0  0  0  0
   22.9948   -6.3953   -1.9992 H   0  0  0  0  0  0  0  0  0  0  0  0
   21.2386   -6.5008   -1.8409 H   0  0  0  0  0  0  0  0  0  0  0  0
   22.9075   -3.9706   -1.3970 H   0  0  0  0  0  0  0  0  0  0  0  0
   22.1903   -4.9831   -0.1279 H   0  0  0  0  0  0  0  0  0  0  0  0
   21.1435   -4.0765   -1.2380 H   0  0  0  0  0  0  0  0  0  0  0  0
    8.4145   -0.9197   -4.6630 H   0  0  0  0  0  0  0  0  0  0  0  0
    7.5285   -1.9139   -5.1209 H   0  0  0  0  0  0  0  0  0  0  0  0
  1  2  1  0  0  0  0
  1 30  1  0  0  0  0
  1 31  1  0  0  0  0
  1 32  1  0  0  0  0
  2  3  2  3  0  0  0
  2 29  1  0  0  0  0
  3  4  1  0  0  0  0
  3 33  1  0  0  0  0
  4  5  2  3  0  0  0
  4 34  1  0  0  0  0
  5  6  1  0  0  0  0
  5 35  1  0  0  0  0
  6  7  1  0  0  0  0
  6 36  1  0  0  0  0
  6 37  1  0  0  0  0
  7  8  1  0  0  0  0
  7 38  1  0  0  0  0
  7 39  1  0  0  0  0
  8  9  1  0  0  0  0
  8 40  1  0  0  0  0
  8 41  1  0  0  0  0
  9 10  2  3  0  0  0
  9 42  1  0  0  0  0
 10 11  1  0  0  0  0
 10 43  1  0  0  0  0
 11 12  2  3  0  0  0
 11 44  1  0  0  0  0
 12 13  1  0  0  0  0
 12 45  1  0  0  0  0
 13 14  2  3  0  0  0
 13 46  1  0  0  0  0
 14 15  1  0  0  0  0
 14 29  1  0  0  0  0
 15 16  1  0  0  0  0
 15 47  1  0  0  0  0
 15 48  1  0  0  0  0
 16 17  1  0  0  0  0
 16 49  1  0  0  0  0
 16 50  1  0  0  0  0
 17 18  1  0  0  0  0
 17 51  1  0  0  0  0
 17 52  1  0  0  0  0
 18 19  1  0  0  0  0
 18 53  1  0  0  0  0
 18 54  1  0  0  0  0
 19 20  1  0  0  0  0
 19 55  1  0  0  0  0
 19 56  1  0  0  0  0
 20 21  1  0  0  0  0
 20 57  1  0  0  0  0
 20 58  1  0  0  0  0
 21 22  1  0  0  0  0
 21 59  1  0  0  0  0
 21 60  1  0  0  0  0
 22 23  1  0  0  0  0
 22 61  1  0  0  0  0
 22 62  1  0  0  0  0
 23 24  1  0  0  0  0
 23 63  1  0  0  0  0
 23 64  1  0  0  0  0
 24 25  1  0  0  0  0
 24 65  1  0  0  0  0
 24 66  1  0  0  0  0
 25 26  1  0  0  0  0
 25 67  1  0  0  0  0
 25 68  1  0  0  0  0
 26 27  1  0  0  0  0
 26 69  1  0  0  0  0
 26 70  1  0  0  0  0
 27 28  1  0  0  0  0
 27 71  1  0  0  0  0
 27 72  1  0  0  0  0
 28 73  1  0  0  0  0
 28 74  1  0  0  0  0
 28 75  1  0  0  0  0
 29 76  1  0  0  0  0
 29 77  1  0  0  0  0
M  END
$$$$
