
 OpenBabel04232217003D

 51 50  0  0  0  0  0  0  0  0999 V2000
    1.4575   -0.4421   -0.7263 O   0  0  0  0  0  0  0  0  0  0  0  0
    2.2530    0.0057    0.0958 C   0  0  0  0  0  0  0  0  0  0  0  0
    3.0093    1.2993   -0.1015 C   0  0  0  0  0  0  0  0  0  0  0  0
    4.4519    1.0269   -0.0461 N   0  0  0  0  0  0  0  0  0  0  0  0
    5.1883    2.2755   -0.2410 C   0  0  0  0  0  0  0  0  0  0  0  0
    6.6861    2.0026   -0.1967 C   0  0  0  0  0  0  0  0  0  0  0  0
    7.4590    3.3016   -0.3963 C   0  0  0  0  0  0  0  0  0  0  0  0
    8.9575    3.0424   -0.3554 C   0  0  0  0  0  0  0  0  0  0  0  0
    9.7197    4.3419   -0.5530 C   0  0  0  0  0  0  0  0  0  0  0  0
   11.2168    4.0732   -0.5135 C   0  0  0  0  0  0  0  0  0  0  0  0
   11.9822    5.3736   -0.7082 C   0  0  0  0  0  0  0  0  0  0  0  0
   13.4776    5.1073   -0.6691 C   0  0  0  0  0  0  0  0  0  0  0  0
   14.2447    6.4037   -0.8656 C   0  0  0  0  0  0  0  0  0  0  0  0
   15.7403    6.1372   -0.8250 C   0  0  0  0  0  0  0  0  0  0  0  0
   16.5089    7.4365   -1.0218 C   0  0  0  0  0  0  0  0  0  0  0  0
   18.0071    7.1747   -0.9814 C   0  0  0  0  0  0  0  0  0  0  0  0
   18.7852    8.4687   -1.1767 C   0  0  0  0  0  0  0  0  0  0  0  0
   20.2781    8.2035   -1.1362 C   0  0  0  0  0  0  0  0  0  0  0  0
    2.4318   -0.5115    1.0532 H   0  0  0  0  0  0  0  0  0  0  0  0
    2.7129    1.9815    0.7017 H   0  0  0  0  0  0  0  0  0  0  0  0
    2.7275    1.7307   -1.0670 H   0  0  0  0  0  0  0  0  0  0  0  0
    4.6982    0.3789   -0.7974 H   0  0  0  0  0  0  0  0  0  0  0  0
    4.9282    2.9934    0.5457 H   0  0  0  0  0  0  0  0  0  0  0  0
    4.9292    2.7228   -1.2085 H   0  0  0  0  0  0  0  0  0  0  0  0
    6.9655    1.2861   -0.9795 H   0  0  0  0  0  0  0  0  0  0  0  0
    6.9610    1.5556    0.7670 H   0  0  0  0  0  0  0  0  0  0  0  0
    7.1872    4.0213    0.3855 H   0  0  0  0  0  0  0  0  0  0  0  0
    7.1886    3.7524   -1.3590 H   0  0  0  0  0  0  0  0  0  0  0  0
    9.2326    2.3261   -1.1393 H   0  0  0  0  0  0  0  0  0  0  0  0
    9.2309    2.5922    0.6068 H   0  0  0  0  0  0  0  0  0  0  0  0
    9.4492    5.0578    0.2313 H   0  0  0  0  0  0  0  0  0  0  0  0
    9.4486    4.7925   -1.5132 H   0  0  0  0  0  0  0  0  0  0  0  0
   11.4903    3.3611   -1.2971 H   0  0  0  0  0  0  0  0  0  0  0  0
   11.4893    3.6231    0.4483 H   0  0  0  0  0  0  0  0  0  0  0  0
   11.7101    6.0898    0.0770 H   0  0  0  0  0  0  0  0  0  0  0  0
   11.7077    5.8262   -1.6694 H   0  0  0  0  0  0  0  0  0  0  0  0
   13.7489    4.3899   -1.4533 H   0  0  0  0  0  0  0  0  0  0  0  0
   13.7496    4.6549    0.2919 H   0  0  0  0  0  0  0  0  0  0  0  0
   13.9729    7.1199   -0.0808 H   0  0  0  0  0  0  0  0  0  0  0  0
   13.9730    6.8565   -1.8269 H   0  0  0  0  0  0  0  0  0  0  0  0
   16.0121    5.4201   -1.6091 H   0  0  0  0  0  0  0  0  0  0  0  0
   16.0115    5.6852    0.1371 H   0  0  0  0  0  0  0  0  0  0  0  0
   16.2328    8.1518   -0.2369 H   0  0  0  0  0  0  0  0  0  0  0  0
   16.2332    7.8871   -1.9828 H   0  0  0  0  0  0  0  0  0  0  0  0
   18.2758    6.4555   -1.7646 H   0  0  0  0  0  0  0  0  0  0  0  0
   18.2749    6.7203   -0.0195 H   0  0  0  0  0  0  0  0  0  0  0  0
   18.5187    9.1868   -0.3925 H   0  0  0  0  0  0  0  0  0  0  0  0
   18.5190    8.9231   -2.1383 H   0  0  0  0  0  0  0  0  0  0  0  0
   20.5695    7.7712   -0.1737 H   0  0  0  0  0  0  0  0  0  0  0  0
   20.8330    9.1353   -1.2770 H   0  0  0  0  0  0  0  0  0  0  0  0
   20.5698    7.5058   -1.9278 H   0  0  0  0  0  0  0  0  0  0  0  0
  1  2  2  0  0  0  0
  2  3  1  0  0  0  0
  2 19  1  0  0  0  0
  3  4  1  0  0  0  0
  3 20  1  0  0  0  0
  3 21  1  0  0  0  0
  4  5  1  0  0  0  0
  4 22  1  0  0  0  0
  5  6  1  0  0  0  0
  5 23  1  0  0  0  0
  5 24  1  0  0  0  0
  6  7  1  0  0  0  0
  6 25  1  0  0  0  0
  6 26  1  0  0  0  0
  7  8  1  0  0  0  0
  7 27  1  0  0  0  0
  7 28  1  0  0  0  0
  8  9  1  0  0  0  0
  8 29  1  0  0  0  0
  8 30  1  0  0  0  0
  9 10  1  0  0  0  0
  9 31  1  0  0  0  0
  9 32  1  0  0  0  0
 10 11  1  0  0  0  0
 10 33  1  0  0  0  0
 10 34  1  0  0  0  0
 11 12  1  0  0  0  0
 11 35  1  0  0  0  0
 11 36  1  0  0  0  0
 12 13  1  0  0  0  0
 12 37  1  0  0  0  0
 12 38  1  0  0  0  0
 13 14  1  0  0  0  0
 13 39  1  0  0  0  0
 13 40  1  0  0  0  0
 14 15  1  0  0  0  0
 14 41  1  0  0  0  0
 14 42  1  0  0  0  0
 15 16  1  0  0  0  0
 15 43  1  0  0  0  0
 15 44  1  0  0  0  0
 16 17  1  0  0  0  0
 16 45  1  0  0  0  0
 16 46  1  0  0  0  0
 17 18  1  0  0  0  0
 17 47  1  0  0  0  0
 17 48  1  0  0  0  0
 18 49  1  0  0  0  0
 18 50  1  0  0  0  0
 18 51  1  0  0  0  0
M  END
$$$$
