
 OpenBabel04232216513D

 46 46  0  0  0  0  0  0  0  0999 V2000
    0.9455   -2.0498   -0.9125 C   0  0  0  0  0  0  0  0  0  0  0  0
    2.4614   -1.9833   -0.9050 C   0  0  0  0  0  0  0  0  0  0  0  0
    3.0406   -0.6140   -1.3280 C   0  0  0  0  0  0  0  0  0  0  0  0
    4.5713   -0.4372   -1.3166 C   0  0  0  0  0  0  0  0  0  0  0  0
    5.1062    0.7709   -1.6268 C   0  0  0  0  0  0  0  0  0  0  0  0
    4.2667    1.9271   -2.1765 C   0  0  0  0  0  0  0  0  0  0  0  0
    3.7873    2.8906   -1.1194 C   0  0  0  0  0  0  0  0  0  0  0  0
    3.5516    2.5827    0.0440 O   0  0  0  0  0  0  0  0  0  0  0  0
    6.5478    1.1834   -1.5372 C   0  0  0  0  0  0  0  0  0  0  0  0
    6.8326    2.3851   -1.6006 O   0  0  0  0  0  0  0  0  0  0  0  0
    7.6809    0.2434   -1.4689 C   0  0  0  0  0  0  0  0  0  0  0  0
    7.7549   -1.0730   -1.2405 C   0  0  0  0  0  0  0  0  0  0  0  0
    8.9803   -1.7334   -1.2720 N   0  0  0  0  0  0  0  0  0  0  0  0
   10.0565   -1.4884   -0.3127 C   0  0  0  0  0  0  0  0  0  0  0  0
    9.8832   -2.2779    0.9932 C   0  0  0  0  0  0  0  0  0  0  0  0
   11.0496   -1.9666    1.9408 C   0  0  0  0  0  0  0  0  0  0  0  0
   10.9683   -2.7046    3.2753 C   0  0  0  0  0  0  0  0  0  0  0  0
   12.1540   -2.3480    4.1690 C   0  0  0  0  0  0  0  0  0  0  0  0
   12.0686   -3.0545    5.3982 O   0  0  0  0  0  0  0  0  0  0  0  0
    6.6232   -1.8904   -0.9057 C   0  0  0  0  0  0  0  0  0  0  0  0
    5.3248   -1.6064   -0.8970 C   0  0  0  0  0  0  0  0  0  0  0  0
    0.6276   -3.0544   -0.6127 H   0  0  0  0  0  0  0  0  0  0  0  0
    0.5429   -1.8489   -1.9088 H   0  0  0  0  0  0  0  0  0  0  0  0
    0.5170   -1.3359   -0.2032 H   0  0  0  0  0  0  0  0  0  0  0  0
    2.8379   -2.7596   -1.5827 H   0  0  0  0  0  0  0  0  0  0  0  0
    2.7871   -2.2257    0.1135 H   0  0  0  0  0  0  0  0  0  0  0  0
    2.5965    0.1383   -0.6566 H   0  0  0  0  0  0  0  0  0  0  0  0
    2.6589   -0.4066   -2.3377 H   0  0  0  0  0  0  0  0  0  0  0  0
    3.3928    1.5899   -2.7375 H   0  0  0  0  0  0  0  0  0  0  0  0
    4.8461    2.5147   -2.9011 H   0  0  0  0  0  0  0  0  0  0  0  0
    3.5311    3.8986   -1.4838 H   0  0  0  0  0  0  0  0  0  0  0  0
    8.6182    0.7595   -1.6665 H   0  0  0  0  0  0  0  0  0  0  0  0
    8.9164   -2.7041   -1.5724 H   0  0  0  0  0  0  0  0  0  0  0  0
   10.1315   -0.4194   -0.0905 H   0  0  0  0  0  0  0  0  0  0  0  0
   10.9963   -1.7863   -0.7875 H   0  0  0  0  0  0  0  0  0  0  0  0
    9.8479   -3.3558    0.7850 H   0  0  0  0  0  0  0  0  0  0  0  0
    8.9332   -2.0190    1.4779 H   0  0  0  0  0  0  0  0  0  0  0  0
   11.0756   -0.8864    2.1325 H   0  0  0  0  0  0  0  0  0  0  0  0
   11.9938   -2.2256    1.4454 H   0  0  0  0  0  0  0  0  0  0  0  0
   10.9491   -3.7895    3.1152 H   0  0  0  0  0  0  0  0  0  0  0  0
   10.0342   -2.4576    3.7942 H   0  0  0  0  0  0  0  0  0  0  0  0
   12.1829   -1.2747    4.3859 H   0  0  0  0  0  0  0  0  0  0  0  0
   13.0994   -2.6222    3.6894 H   0  0  0  0  0  0  0  0  0  0  0  0
   11.2515   -2.7723    5.8427 H   0  0  0  0  0  0  0  0  0  0  0  0
    6.8891   -2.8880   -0.5446 H   0  0  0  0  0  0  0  0  0  0  0  0
    4.7411   -2.4442   -0.5207 H   0  0  0  0  0  0  0  0  0  0  0  0
  1  2  1  0  0  0  0
  1 22  1  0  0  0  0
  1 23  1  0  0  0  0
  1 24  1  0  0  0  0
  2  3  1  0  0  0  0
  2 25  1  0  0  0  0
  2 26  1  0  0  0  0
  3  4  1  0  0  0  0
  3 27  1  0  0  0  0
  3 28  1  0  0  0  0
  4  5  2  0  0  0  0
  4 21  1  0  0  0  0
  5  6  1  0  0  0  0
  5  9  1  0  0  0  0
  6  7  1  0  0  0  0
  6 29  1  0  0  0  0
  6 30  1  0  0  0  0
  7  8  2  0  0  0  0
  7 31  1  0  0  0  0
  9 10  2  0  0  0  0
  9 11  1  0  0  0  0
 11 12  2  0  0  0  0
 11 32  1  0  0  0  0
 12 13  1  0  0  0  0
 12 20  1  0  0  0  0
 13 14  1  0  0  0  0
 13 33  1  0  0  0  0
 14 15  1  0  0  0  0
 14 34  1  0  0  0  0
 14 35  1  0  0  0  0
 15 16  1  0  0  0  0
 15 36  1  0  0  0  0
 15 37  1  0  0  0  0
 16 17  1  0  0  0  0
 16 38  1  0  0  0  0
 16 39  1  0  0  0  0
 17 18  1  0  0  0  0
 17 40  1  0  0  0  0
 17 41  1  0  0  0  0
 18 19  1  0  0  0  0
 18 42  1  0  0  0  0
 18 43  1  0  0  0  0
 19 44  1  0  0  0  0
 20 21  2  0  0  0  0
 20 45  1  0  0  0  0
 21 46  1  0  0  0  0
M  END
$$$$
