
 OpenBabel04232216503D

 48 49  0  0  1  0  0  0  0  0999 V2000
    2.8028    2.5442    3.2045 C   0  0  0  0  0  0  0  0  0  0  0  0
    4.2359    3.0268    3.1153 C   0  0  0  0  0  0  0  0  0  0  0  0
    4.7049    2.7199    1.8628 N   0  0  0  0  0  0  0  0  0  0  0  0
    5.2668    1.5561    1.7043 C   0  0  0  0  0  0  0  0  0  0  0  0
    6.0880    0.8337    2.7500 C   0  0  3  0  0  0  0  0  0  0  0  0
    5.7917   -0.5989    3.2352 C   0  0  0  0  0  0  0  0  0  0  0  0
    6.7609   -0.9450    4.3950 C   0  0  0  0  0  0  0  0  0  0  0  0
    6.5886   -2.3483    4.9723 C   0  0  0  0  0  0  0  0  0  0  0  0
    7.5915   -2.6134    6.1052 C   0  0  0  0  0  0  0  0  0  0  0  0
    7.4241   -4.0153    6.6716 C   0  0  0  0  0  0  0  0  0  0  0  0
    5.5065    0.9795    0.3598 C   0  0  0  0  0  0  0  0  0  0  0  0
    6.7829    0.5898    0.4693 C   0  0  0  0  0  0  0  0  0  0  0  0
    7.2760    0.8803    1.8005 C   0  0  0  0  0  0  0  0  0  0  0  0
    8.4681    1.4606    2.0656 C   0  0  0  0  0  0  0  0  0  0  0  0
    8.7673    1.8607    3.4059 C   0  0  0  0  0  0  0  0  0  0  0  0
    9.7534    2.6611    3.7971 C   0  0  0  0  0  0  0  0  0  0  0  0
    9.7519    2.9311    5.2517 C   0  0  0  0  0  0  0  0  0  0  0  0
    9.5614    2.0684    6.0957 O   0  0  0  0  0  0  0  0  0  0  0  0
    9.6844    4.2796    5.4124 N   0  0  0  0  0  0  0  0  0  0  0  0
    9.0430    4.6305    6.4680 C   0  0  0  0  0  0  0  0  0  0  0  0
    8.1782    5.8054    6.3245 C   0  0  0  0  0  0  0  0  0  0  0  0
    7.0297    5.6172    5.6322 C   0  0  0  0  0  0  0  0  0  0  0  0
    6.4316    4.4256    5.2417 N   0  0  0  0  0  0  0  0  0  0  0  0
    5.9805    4.3290    4.0628 N   0  0  0  0  0  0  0  0  0  0  0  0
    4.7387    3.6558    4.1346 N   0  0  0  0  0  0  0  0  0  0  0  0
    2.3401    2.8130    4.1518 H   0  0  0  0  0  0  0  0  0  0  0  0
    2.7784    1.4596    3.0621 H   0  0  0  0  0  0  0  0  0  0  0  0
    2.2422    3.0015    2.3792 H   0  0  0  0  0  0  0  0  0  0  0  0
    6.1662    1.4855    3.6169 H   0  0  0  0  0  0  0  0  0  0  0  0
    5.9143   -1.3417    2.4360 H   0  0  0  0  0  0  0  0  0  0  0  0
    4.7565   -0.6823    3.5842 H   0  0  0  0  0  0  0  0  0  0  0  0
    6.6245   -0.2131    5.2017 H   0  0  0  0  0  0  0  0  0  0  0  0
    7.7965   -0.8483    4.0476 H   0  0  0  0  0  0  0  0  0  0  0  0
    6.7348   -3.0910    4.1801 H   0  0  0  0  0  0  0  0  0  0  0  0
    5.5690   -2.4656    5.3549 H   0  0  0  0  0  0  0  0  0  0  0  0
    7.4551   -1.8820    6.9112 H   0  0  0  0  0  0  0  0  0  0  0  0
    8.6188   -2.4964    5.7385 H   0  0  0  0  0  0  0  0  0  0  0  0
    6.4162   -4.1546    7.0748 H   0  0  0  0  0  0  0  0  0  0  0  0
    8.1406   -4.1930    7.4802 H   0  0  0  0  0  0  0  0  0  0  0  0
    7.5928   -4.7706    5.8975 H   0  0  0  0  0  0  0  0  0  0  0  0
    4.8323    0.9772   -0.4759 H   0  0  0  0  0  0  0  0  0  0  0  0
    7.3749    0.1687   -0.3351 H   0  0  0  0  0  0  0  0  0  0  0  0
    9.1448    1.6994    1.2584 H   0  0  0  0  0  0  0  0  0  0  0  0
    8.0936    1.5081    4.1863 H   0  0  0  0  0  0  0  0  0  0  0  0
   10.4058    3.2110    3.1416 H   0  0  0  0  0  0  0  0  0  0  0  0
    8.9027    4.0182    7.3787 H   0  0  0  0  0  0  0  0  0  0  0  0
    8.5369    6.7540    6.6676 H   0  0  0  0  0  0  0  0  0  0  0  0
    6.4200    6.4882    5.4439 H   0  0  0  0  0  0  0  0  0  0  0  0
  1  2  1  0  0  0  0
  1 26  1  0  0  0  0
  1 27  1  0  0  0  0
  1 28  1  0  0  0  0
  2  3  1  0  0  0  0
  2 25  2  3  0  0  0
  3  4  2  3  0  0  0
  4  5  1  0  0  0  0
  4 11  1  0  0  0  0
  5  6  1  0  0  0  0
  5 13  1  0  0  0  0
  5 29  1  0  0  0  0
  6  7  1  0  0  0  0
  6 30  1  0  0  0  0
  6 31  1  0  0  0  0
  7  8  1  0  0  0  0
  7 32  1  0  0  0  0
  7 33  1  0  0  0  0
  8  9  1  0  0  0  0
  8 34  1  0  0  0  0
  8 35  1  0  0  0  0
  9 10  1  0  0  0  0
  9 36  1  0  0  0  0
  9 37  1  0  0  0  0
 10 38  1  0  0  0  0
 10 39  1  0  0  0  0
 10 40  1  0  0  0  0
 11 12  2  0  0  0  0
 11 41  1  0  0  0  0
 12 13  1  0  0  0  0
 12 42  1  0  0  0  0
 13 14  2  3  0  0  0
 14 15  1  0  0  0  0
 14 43  1  0  0  0  0
 15 16  2  3  0  0  0
 15 44  1  0  0  0  0
 16 17  1  0  0  0  0
 16 45  1  0  0  0  0
 17 18  2  0  0  0  0
 17 19  1  0  0  0  0
 19 20  2  3  0  0  0
 20 21  1  0  0  0  0
 20 46  1  0  0  0  0
 21 22  2  3  0  0  0
 21 47  1  0  0  0  0
 22 23  1  0  0  0  0
 22 48  1  0  0  0  0
 23 24  2  3  0  0  0
 24 25  1  0  0  0  0
M  END
$$$$
