
 OpenBabel04232217013D

241240  0  0  0  0  0  0  0  0999 V2000
    0.9138    0.0441    0.0737 O   0  0  0  0  0  0  0  0  0  0  0  0
    2.3297    0.0255    0.0941 C   0  0  0  0  0  0  0  0  0  0  0  0
    2.8469    0.7468   -1.1407 C   0  0  0  0  0  0  0  0  0  0  0  0
    4.3688    0.7551   -1.1631 C   0  0  0  0  0  0  0  0  0  0  0  0
    4.8857    1.4777   -2.4000 C   0  0  0  0  0  0  0  0  0  0  0  0
    6.4076    1.4818   -2.4149 C   0  0  0  0  0  0  0  0  0  0  0  0
    6.9288    2.2062   -3.6505 C   0  0  0  0  0  0  0  0  0  0  0  0
    8.4502    2.2027   -3.6491 C   0  0  0  0  0  0  0  0  0  0  0  0
    8.9404    2.8979   -4.8354 N   0  0  0  0  0  0  0  0  0  0  0  0
   10.3965    2.8973   -4.8334 C   0  0  0  0  0  0  0  0  0  0  0  0
   10.8818    3.5913   -6.0217 N   0  0  0  0  0  0  0  0  0  0  0  0
   12.3399    3.5939   -6.0221 C   0  0  0  0  0  0  0  0  0  0  0  0
   12.8430    4.3191   -7.2596 C   0  0  0  0  0  0  0  0  0  0  0  0
   14.3649    4.3270   -7.2653 C   0  0  0  0  0  0  0  0  0  0  0  0
   14.8801    5.0491   -8.4972 C   0  0  0  0  0  0  0  0  0  0  0  0
   16.3988    5.0551   -8.5031 C   0  0  0  0  0  0  0  0  0  0  0  0
   16.9117    5.7749   -9.7357 C   0  0  0  0  0  0  0  0  0  0  0  0
   18.4298    5.7782   -9.7412 C   0  0  0  0  0  0  0  0  0  0  0  0
   18.9430    6.5001  -10.9734 C   0  0  0  0  0  0  0  0  0  0  0  0
   20.4597    6.5048  -10.9770 C   0  0  0  0  0  0  0  0  0  0  0  0
   20.9702    7.2290  -12.2084 C   0  0  0  0  0  0  0  0  0  0  0  0
   22.4871    7.2314  -12.2125 C   0  0  0  0  0  0  0  0  0  0  0  0
   22.9972    7.9572  -13.4427 C   0  0  0  0  0  0  0  0  0  0  0  0
   24.5140    7.9613  -13.4461 C   0  0  0  0  0  0  0  0  0  0  0  0
   25.0240    8.6871  -14.6762 C   0  0  0  0  0  0  0  0  0  0  0  0
   26.5405    8.6896  -14.6802 C   0  0  0  0  0  0  0  0  0  0  0  0
   27.0506    9.4152  -15.9104 C   0  0  0  0  0  0  0  0  0  0  0  0
   28.5673    9.4177  -15.9145 C   0  0  0  0  0  0  0  0  0  0  0  0
   29.0774   10.1434  -17.1447 C   0  0  0  0  0  0  0  0  0  0  0  0
   30.5941   10.1458  -17.1488 C   0  0  0  0  0  0  0  0  0  0  0  0
   31.1039   10.8717  -18.3792 C   0  0  0  0  0  0  0  0  0  0  0  0
   32.6208   10.8738  -18.3829 C   0  0  0  0  0  0  0  0  0  0  0  0
   33.1304   11.5998  -19.6136 C   0  0  0  0  0  0  0  0  0  0  0  0
   34.6475   11.6002  -19.6182 C   0  0  0  0  0  0  0  0  0  0  0  0
   35.1571   12.3263  -20.8489 C   0  0  0  0  0  0  0  0  0  0  0  0
   36.6742   12.3283  -20.8525 C   0  0  0  0  0  0  0  0  0  0  0  0
   37.1838   13.0561  -22.0822 C   0  0  0  0  0  0  0  0  0  0  0  0
   38.7008   13.0565  -22.0868 C   0  0  0  0  0  0  0  0  0  0  0  0
   39.2104   13.7826  -23.3175 C   0  0  0  0  0  0  0  0  0  0  0  0
   40.7275   13.7846  -23.3211 C   0  0  0  0  0  0  0  0  0  0  0  0
   41.2371   14.5089  -24.5528 C   0  0  0  0  0  0  0  0  0  0  0  0
   42.7541   14.5110  -24.5564 C   0  0  0  0  0  0  0  0  0  0  0  0
   43.2637   15.2353  -25.7882 C   0  0  0  0  0  0  0  0  0  0  0  0
   44.7808   15.2374  -25.7918 C   0  0  0  0  0  0  0  0  0  0  0  0
   45.2904   15.9617  -27.0235 C   0  0  0  0  0  0  0  0  0  0  0  0
   46.8075   15.9638  -27.0271 C   0  0  0  0  0  0  0  0  0  0  0  0
   47.3171   16.6882  -28.2588 C   0  0  0  0  0  0  0  0  0  0  0  0
   48.8341   16.6902  -28.2624 C   0  0  0  0  0  0  0  0  0  0  0  0
   49.3437   17.4145  -29.4942 C   0  0  0  0  0  0  0  0  0  0  0  0
   50.8608   17.4150  -29.4987 C   0  0  0  0  0  0  0  0  0  0  0  0
   51.3704   18.1392  -30.7305 C   0  0  0  0  0  0  0  0  0  0  0  0
   52.8874   18.1413  -30.7341 C   0  0  0  0  0  0  0  0  0  0  0  0
   53.3970   18.8639  -31.9668 C   0  0  0  0  0  0  0  0  0  0  0  0
   54.9141   18.8642  -31.9715 C   0  0  0  0  0  0  0  0  0  0  0  0
   55.4237   19.5885  -33.2032 C   0  0  0  0  0  0  0  0  0  0  0  0
   56.9408   19.5872  -33.2088 C   0  0  0  0  0  0  0  0  0  0  0  0
   57.4504   20.3132  -34.4396 C   0  0  0  0  0  0  0  0  0  0  0  0
   58.9674   20.3101  -34.4462 C   0  0  0  0  0  0  0  0  0  0  0  0
   59.4770   21.0361  -35.6769 C   0  0  0  0  0  0  0  0  0  0  0  0
   60.9941   21.0313  -35.6846 C   0  0  0  0  0  0  0  0  0  0  0  0
   61.5037   21.7573  -36.9153 C   0  0  0  0  0  0  0  0  0  0  0  0
   63.0207   21.7525  -36.9231 C   0  0  0  0  0  0  0  0  0  0  0  0
   63.5303   22.4784  -38.1537 C   0  0  0  0  0  0  0  0  0  0  0  0
   65.0472   22.4737  -38.1615 C   0  0  0  0  0  0  0  0  0  0  0  0
   65.5570   23.1996  -39.3919 C   0  0  0  0  0  0  0  0  0  0  0  0
   67.0738   23.1950  -39.4001 C   0  0  0  0  0  0  0  0  0  0  0  0
   67.5839   23.9207  -40.6303 C   0  0  0  0  0  0  0  0  0  0  0  0
   69.1005   23.9162  -40.6385 C   0  0  0  0  0  0  0  0  0  0  0  0
   69.6106   24.6419  -41.8687 C   0  0  0  0  0  0  0  0  0  0  0  0
   71.1272   24.6391  -41.8759 C   0  0  0  0  0  0  0  0  0  0  0  0
   71.6373   25.3648  -43.1061 C   0  0  0  0  0  0  0  0  0  0  0  0
   73.1540   25.3621  -43.1133 C   0  0  0  0  0  0  0  0  0  0  0  0
   73.6644   26.0878  -44.3436 C   0  0  0  0  0  0  0  0  0  0  0  0
   75.1818   26.0849  -44.3505 C   0  0  0  0  0  0  0  0  0  0  0  0
   75.6926   26.8110  -45.5813 C   0  0  0  0  0  0  0  0  0  0  0  0
   77.2117   26.8107  -45.5890 C   0  0  0  0  0  0  0  0  0  0  0  0
   77.7242   27.5364  -46.8191 C   0  0  0  0  0  0  0  0  0  0  0  0
   79.2438   27.5370  -46.8280 C   0  0  0  0  0  0  0  0  0  0  0  0
   79.7613   28.2653  -48.0586 C   0  0  0  0  0  0  0  0  0  0  0  0
   81.2824   28.2731  -48.0758 C   0  0  0  0  0  0  0  0  0  0  0  0
   81.7964   29.0011  -49.3059 C   0  0  0  0  0  0  0  0  0  0  0  0
    0.6099   -0.4254    0.8736 H   0  0  0  0  0  0  0  0  0  0  0  0
    2.6710   -1.0145    0.1037 H   0  0  0  0  0  0  0  0  0  0  0  0
    2.6776    0.5233    1.0046 H   0  0  0  0  0  0  0  0  0  0  0  0
    2.4594    1.7728   -1.1579 H   0  0  0  0  0  0  0  0  0  0  0  0
    2.4547    0.2614   -2.0428 H   0  0  0  0  0  0  0  0  0  0  0  0
    4.7462   -0.2746   -1.1526 H   0  0  0  0  0  0  0  0  0  0  0  0
    4.7509    1.2484   -0.2610 H   0  0  0  0  0  0  0  0  0  0  0  0
    4.5127    2.5089   -2.4115 H   0  0  0  0  0  0  0  0  0  0  0  0
    4.5082    0.9849   -3.3039 H   0  0  0  0  0  0  0  0  0  0  0  0
    6.7820    0.4507   -2.4035 H   0  0  0  0  0  0  0  0  0  0  0  0
    6.7865    1.9725   -1.5098 H   0  0  0  0  0  0  0  0  0  0  0  0
    6.5526    3.2366   -3.6599 H   0  0  0  0  0  0  0  0  0  0  0  0
    6.5518    1.7127   -4.5549 H   0  0  0  0  0  0  0  0  0  0  0  0
    8.8118    1.1675   -3.6446 H   0  0  0  0  0  0  0  0  0  0  0  0
    8.8178    2.6948   -2.7403 H   0  0  0  0  0  0  0  0  0  0  0  0
    8.6010    3.8583   -4.8343 H   0  0  0  0  0  0  0  0  0  0  0  0
   10.7607    1.8640   -4.8453 H   0  0  0  0  0  0  0  0  0  0  0  0
   10.7723    3.3941   -3.9318 H   0  0  0  0  0  0  0  0  0  0  0  0
   10.5341    4.5488   -6.0174 H   0  0  0  0  0  0  0  0  0  0  0  0
   12.7186    2.5647   -6.0258 H   0  0  0  0  0  0  0  0  0  0  0  0
   12.7219    4.0934   -5.1236 H   0  0  0  0  0  0  0  0  0  0  0  0
   12.4686    5.3504   -7.2752 H   0  0  0  0  0  0  0  0  0  0  0  0
   12.4722    3.8239   -8.1659 H   0  0  0  0  0  0  0  0  0  0  0  0
   14.7441    3.2977   -7.2523 H   0  0  0  0  0  0  0  0  0  0  0  0
   14.7395    4.8212   -6.3609 H   0  0  0  0  0  0  0  0  0  0  0  0
   14.5045    6.0794   -8.5111 H   0  0  0  0  0  0  0  0  0  0  0  0
   14.5080    4.5551   -9.4032 H   0  0  0  0  0  0  0  0  0  0  0  0
   16.7788    4.0263   -8.4855 H   0  0  0  0  0  0  0  0  0  0  0  0
   16.7736    5.5534   -7.5984 H   0  0  0  0  0  0  0  0  0  0  0  0
   16.5375    6.8060   -9.7502 H   0  0  0  0  0  0  0  0  0  0  0  0
   16.5365    5.2807  -10.6402 H   0  0  0  0  0  0  0  0  0  0  0  0
   18.8069    4.7482   -9.7286 H   0  0  0  0  0  0  0  0  0  0  0  0
   18.8058    6.2718   -8.8368 H   0  0  0  0  0  0  0  0  0  0  0  0
   18.5660    7.5308  -10.9865 H   0  0  0  0  0  0  0  0  0  0  0  0
   18.5682    6.0069  -11.8787 H   0  0  0  0  0  0  0  0  0  0  0  0
   20.8366    5.4747  -10.9659 H   0  0  0  0  0  0  0  0  0  0  0  0
   20.8346    6.9974  -10.0715 H   0  0  0  0  0  0  0  0  0  0  0  0
   20.5945    8.2595  -12.2188 H   0  0  0  0  0  0  0  0  0  0  0  0
   20.5946    6.7372  -13.1141 H   0  0  0  0  0  0  0  0  0  0  0  0
   22.8629    6.2009  -12.2035 H   0  0  0  0  0  0  0  0  0  0  0  0
   22.8629    7.7220  -11.3061 H   0  0  0  0  0  0  0  0  0  0  0  0
   22.6203    8.9874  -13.4526 H   0  0  0  0  0  0  0  0  0  0  0  0
   22.6226    7.4658  -14.3492 H   0  0  0  0  0  0  0  0  0  0  0  0
   24.8908    6.9312  -13.4361 H   0  0  0  0  0  0  0  0  0  0  0  0
   24.8886    8.4528  -12.5395 H   0  0  0  0  0  0  0  0  0  0  0  0
   24.6481    9.7177  -14.6852 H   0  0  0  0  0  0  0  0  0  0  0  0
   24.6482    8.1966  -15.5825 H   0  0  0  0  0  0  0  0  0  0  0  0
   26.9164    7.6589  -14.6712 H   0  0  0  0  0  0  0  0  0  0  0  0
   26.9164    9.1801  -13.7738 H   0  0  0  0  0  0  0  0  0  0  0  0
   26.6748   10.4458  -15.9195 H   0  0  0  0  0  0  0  0  0  0  0  0
   26.6748    8.9247  -16.8168 H   0  0  0  0  0  0  0  0  0  0  0  0
   28.9430    8.3871  -15.9055 H   0  0  0  0  0  0  0  0  0  0  0  0
   28.9430    9.9082  -15.0081 H   0  0  0  0  0  0  0  0  0  0  0  0
   28.7015   11.1740  -17.1538 H   0  0  0  0  0  0  0  0  0  0  0  0
   28.7015    9.6528  -18.0511 H   0  0  0  0  0  0  0  0  0  0  0  0
   30.9697    9.1152  -17.1398 H   0  0  0  0  0  0  0  0  0  0  0  0
   30.9697   10.6363  -16.2424 H   0  0  0  0  0  0  0  0  0  0  0  0
   30.7282   11.9022  -18.3881 H   0  0  0  0  0  0  0  0  0  0  0  0
   30.7281   10.3810  -19.2855 H   0  0  0  0  0  0  0  0  0  0  0  0
   32.9964    9.8433  -18.3741 H   0  0  0  0  0  0  0  0  0  0  0  0
   32.9965   11.3645  -17.4767 H   0  0  0  0  0  0  0  0  0  0  0  0
   32.7560   12.6307  -19.6217 H   0  0  0  0  0  0  0  0  0  0  0  0
   32.7537   11.1100  -20.5198 H   0  0  0  0  0  0  0  0  0  0  0  0
   35.0220   10.5693  -19.6102 H   0  0  0  0  0  0  0  0  0  0  0  0
   35.0242   12.0900  -18.7120 H   0  0  0  0  0  0  0  0  0  0  0  0
   34.7815   13.3567  -20.8577 H   0  0  0  0  0  0  0  0  0  0  0  0
   34.7815   11.8356  -21.7551 H   0  0  0  0  0  0  0  0  0  0  0  0
   37.0497   11.2978  -20.8451 H   0  0  0  0  0  0  0  0  0  0  0  0
   37.0499   12.8178  -19.9457 H   0  0  0  0  0  0  0  0  0  0  0  0
   36.8093   14.0870  -22.0888 H   0  0  0  0  0  0  0  0  0  0  0  0
   36.8070   12.5675  -22.9890 H   0  0  0  0  0  0  0  0  0  0  0  0
   39.0753   12.0256  -22.0788 H   0  0  0  0  0  0  0  0  0  0  0  0
   39.0775   13.5463  -21.1806 H   0  0  0  0  0  0  0  0  0  0  0  0
   38.8349   14.8130  -23.3264 H   0  0  0  0  0  0  0  0  0  0  0  0
   38.8348   13.2918  -24.2237 H   0  0  0  0  0  0  0  0  0  0  0  0
   41.1031   12.7542  -23.3109 H   0  0  0  0  0  0  0  0  0  0  0  0
   41.1031   14.2766  -22.4156 H   0  0  0  0  0  0  0  0  0  0  0  0
   40.8615   15.5394  -24.5631 H   0  0  0  0  0  0  0  0  0  0  0  0
   40.8615   14.0170  -25.4583 H   0  0  0  0  0  0  0  0  0  0  0  0
   43.1297   13.4806  -24.5462 H   0  0  0  0  0  0  0  0  0  0  0  0
   43.1297   15.0030  -23.6510 H   0  0  0  0  0  0  0  0  0  0  0  0
   42.8881   16.2658  -25.7985 H   0  0  0  0  0  0  0  0  0  0  0  0
   42.8881   14.7434  -26.6937 H   0  0  0  0  0  0  0  0  0  0  0  0
   45.1564   14.2070  -25.7815 H   0  0  0  0  0  0  0  0  0  0  0  0
   45.1564   15.7294  -24.8863 H   0  0  0  0  0  0  0  0  0  0  0  0
   44.9148   16.9922  -27.0338 H   0  0  0  0  0  0  0  0  0  0  0  0
   44.9148   15.4698  -27.9290 H   0  0  0  0  0  0  0  0  0  0  0  0
   47.1831   14.9334  -27.0168 H   0  0  0  0  0  0  0  0  0  0  0  0
   47.1831   16.4558  -26.1216 H   0  0  0  0  0  0  0  0  0  0  0  0
   46.9415   17.7186  -28.2691 H   0  0  0  0  0  0  0  0  0  0  0  0
   46.9415   16.1962  -29.1643 H   0  0  0  0  0  0  0  0  0  0  0  0
   49.2097   15.6598  -28.2521 H   0  0  0  0  0  0  0  0  0  0  0  0
   49.2098   17.1822  -27.3570 H   0  0  0  0  0  0  0  0  0  0  0  0
   48.9693   18.4454  -29.5037 H   0  0  0  0  0  0  0  0  0  0  0  0
   48.9670   16.9234  -30.3997 H   0  0  0  0  0  0  0  0  0  0  0  0
   51.2353   16.3840  -29.4893 H   0  0  0  0  0  0  0  0  0  0  0  0
   51.2375   17.9060  -28.5933 H   0  0  0  0  0  0  0  0  0  0  0  0
   50.9949   19.1697  -30.7408 H   0  0  0  0  0  0  0  0  0  0  0  0
   50.9947   17.6472  -31.6359 H   0  0  0  0  0  0  0  0  0  0  0  0
   53.2630   17.1109  -30.7224 H   0  0  0  0  0  0  0  0  0  0  0  0
   53.2631   18.6345  -29.8293 H   0  0  0  0  0  0  0  0  0  0  0  0
   53.0225   19.8947  -31.9778 H   0  0  0  0  0  0  0  0  0  0  0  0
   53.0204   18.3715  -32.8717 H   0  0  0  0  0  0  0  0  0  0  0  0
   55.2885   17.8333  -31.9619 H   0  0  0  0  0  0  0  0  0  0  0  0
   55.2909   19.3554  -31.0660 H   0  0  0  0  0  0  0  0  0  0  0  0
   55.0504   20.6198  -33.2120 H   0  0  0  0  0  0  0  0  0  0  0  0
   55.0458   19.0983  -34.1087 H   0  0  0  0  0  0  0  0  0  0  0  0
   57.3139   18.5558  -33.2015 H   0  0  0  0  0  0  0  0  0  0  0  0
   57.3188   20.0761  -32.3027 H   0  0  0  0  0  0  0  0  0  0  0  0
   57.0783   21.3449  -34.4461 H   0  0  0  0  0  0  0  0  0  0  0  0
   57.0713   19.8251  -35.3457 H   0  0  0  0  0  0  0  0  0  0  0  0
   59.3394   19.2783  -34.4396 H   0  0  0  0  0  0  0  0  0  0  0  0
   59.3466   20.7982  -33.5401 H   0  0  0  0  0  0  0  0  0  0  0  0
   59.1061   22.0683  -35.6828 H   0  0  0  0  0  0  0  0  0  0  0  0
   59.0968   20.5489  -36.5830 H   0  0  0  0  0  0  0  0  0  0  0  0
   61.3650   19.9991  -35.6788 H   0  0  0  0  0  0  0  0  0  0  0  0
   61.3744   21.5185  -34.7785 H   0  0  0  0  0  0  0  0  0  0  0  0
   61.1328   22.7895  -36.9212 H   0  0  0  0  0  0  0  0  0  0  0  0
   61.1234   21.2701  -37.8214 H   0  0  0  0  0  0  0  0  0  0  0  0
   63.3916   20.7203  -36.9172 H   0  0  0  0  0  0  0  0  0  0  0  0
   63.4010   22.2397  -36.0169 H   0  0  0  0  0  0  0  0  0  0  0  0
   63.1595   23.5107  -38.1596 H   0  0  0  0  0  0  0  0  0  0  0  0
   63.1501   21.9913  -39.0598 H   0  0  0  0  0  0  0  0  0  0  0  0
   65.4183   21.4414  -38.1556 H   0  0  0  0  0  0  0  0  0  0  0  0
   65.4277   22.9609  -37.2553 H   0  0  0  0  0  0  0  0  0  0  0  0
   65.1861   24.2319  -39.3980 H   0  0  0  0  0  0  0  0  0  0  0  0
   65.1767   22.7125  -40.2982 H   0  0  0  0  0  0  0  0  0  0  0  0
   67.4449   22.1627  -39.3940 H   0  0  0  0  0  0  0  0  0  0  0  0
   67.4543   23.6821  -38.4938 H   0  0  0  0  0  0  0  0  0  0  0  0
   67.2128   24.9530  -40.6364 H   0  0  0  0  0  0  0  0  0  0  0  0
   67.2034   23.4336  -41.5366 H   0  0  0  0  0  0  0  0  0  0  0  0
   69.4716   22.8839  -40.6324 H   0  0  0  0  0  0  0  0  0  0  0  0
   69.4809   24.4033  -39.7322 H   0  0  0  0  0  0  0  0  0  0  0  0
   69.2383   25.6738  -41.8755 H   0  0  0  0  0  0  0  0  0  0  0  0
   69.2312   24.1540  -42.7750 H   0  0  0  0  0  0  0  0  0  0  0  0
   71.4994   23.6072  -41.8691 H   0  0  0  0  0  0  0  0  0  0  0  0
   71.5065   25.1271  -40.9696 H   0  0  0  0  0  0  0  0  0  0  0  0
   71.2650   26.3967  -43.1129 H   0  0  0  0  0  0  0  0  0  0  0  0
   71.2579   24.8769  -44.0124 H   0  0  0  0  0  0  0  0  0  0  0  0
   73.5262   24.3302  -43.1065 H   0  0  0  0  0  0  0  0  0  0  0  0
   73.5333   25.8500  -42.2070 H   0  0  0  0  0  0  0  0  0  0  0  0
   73.2920   27.1198  -44.3505 H   0  0  0  0  0  0  0  0  0  0  0  0
   73.2850   25.5999  -45.2501 H   0  0  0  0  0  0  0  0  0  0  0  0
   75.5534   25.0533  -44.3442 H   0  0  0  0  0  0  0  0  0  0  0  0
   75.5604   26.5731  -43.4446 H   0  0  0  0  0  0  0  0  0  0  0  0
   75.3187   27.8425  -45.5891 H   0  0  0  0  0  0  0  0  0  0  0  0
   75.3139   26.3223  -46.4878 H   0  0  0  0  0  0  0  0  0  0  0  0
   77.5825   25.7786  -45.5803 H   0  0  0  0  0  0  0  0  0  0  0  0
   77.5872   27.2989  -44.6815 H   0  0  0  0  0  0  0  0  0  0  0  0
   77.3489   28.5675  -46.8261 H   0  0  0  0  0  0  0  0  0  0  0  0
   77.3442   27.0474  -47.7249 H   0  0  0  0  0  0  0  0  0  0  0  0
   79.6147   26.5046  -46.8204 H   0  0  0  0  0  0  0  0  0  0  0  0
   79.6194   28.0237  -45.9195 H   0  0  0  0  0  0  0  0  0  0  0  0
   79.3819   29.2948  -48.0638 H   0  0  0  0  0  0  0  0  0  0  0  0
   79.3794   27.7762  -48.9635 H   0  0  0  0  0  0  0  0  0  0  0  0
   81.6621   27.2447  -48.0730 H   0  0  0  0  0  0  0  0  0  0  0  0
   81.6645   28.7638  -47.1730 H   0  0  0  0  0  0  0  0  0  0  0  0
   81.4430   28.5113  -50.2189 H   0  0  0  0  0  0  0  0  0  0  0  0
   82.8869   29.0047  -49.3148 H   0  0  0  0  0  0  0  0  0  0  0  0
   81.4454   30.0380  -49.3144 H   0  0  0  0  0  0  0  0  0  0  0  0
  1  2  1  0  0  0  0
  1 82  1  0  0  0  0
  2  3  1  0  0  0  0
  2 83  1  0  0  0  0
  2 84  1  0  0  0  0
  3  4  1  0  0  0  0
  3 85  1  0  0  0  0
  3 86  1  0  0  0  0
  4  5  1  0  0  0  0
  4 87  1  0  0  0  0
  4 88  1  0  0  0  0
  5  6  1  0  0  0  0
  5 89  1  0  0  0  0
  5 90  1  0  0  0  0
  6  7  1  0  0  0  0
  6 91  1  0  0  0  0
  6 92  1  0  0  0  0
  7  8  1  0  0  0  0
  7 93  1  0  0  0  0
  7 94  1  0  0  0  0
  8  9  1  0  0  0  0
  8 95  1  0  0  0  0
  8 96  1  0  0  0  0
  9 10  1  0  0  0  0
  9 97  1  0  0  0  0
 10 11  1  0  0  0  0
 10 98  1  0  0  0  0
 10 99  1  0  0  0  0
 11 12  1  0  0  0  0
 11100  1  0  0  0  0
 12 13  1  0  0  0  0
 12101  1  0  0  0  0
 12102  1  0  0  0  0
 13 14  1  0  0  0  0
 13103  1  0  0  0  0
 13104  1  0  0  0  0
 14 15  1  0  0  0  0
 14105  1  0  0  0  0
 14106  1  0  0  0  0
 15 16  1  0  0  0  0
 15107  1  0  0  0  0
 15108  1  0  0  0  0
 16 17  1  0  0  0  0
 16109  1  0  0  0  0
 16110  1  0  0  0  0
 17 18  1  0  0  0  0
 17111  1  0  0  0  0
 17112  1  0  0  0  0
 18 19  1  0  0  0  0
 18113  1  0  0  0  0
 18114  1  0  0  0  0
 19 20  1  0  0  0  0
 19115  1  0  0  0  0
 19116  1  0  0  0  0
 20 21  1  0  0  0  0
 20117  1  0  0  0  0
 20118  1  0  0  0  0
 21 22  1  0  0  0  0
 21119  1  0  0  0  0
 21120  1  0  0  0  0
 22 23  1  0  0  0  0
 22121  1  0  0  0  0
 22122  1  0  0  0  0
 23 24  1  0  0  0  0
 23123  1  0  0  0  0
 23124  1  0  0  0  0
 24 25  1  0  0  0  0
 24125  1  0  0  0  0
 24126  1  0  0  0  0
 25 26  1  0  0  0  0
 25127  1  0  0  0  0
 25128  1  0  0  0  0
 26 27  1  0  0  0  0
 26129  1  0  0  0  0
 26130  1  0  0  0  0
 27 28  1  0  0  0  0
 27131  1  0  0  0  0
 27132  1  0  0  0  0
 28 29  1  0  0  0  0
 28133  1  0  0  0  0
 28134  1  0  0  0  0
 29 30  1  0  0  0  0
 29135  1  0  0  0  0
 29136  1  0  0  0  0
 30 31  1  0  0  0  0
 30137  1  0  0  0  0
 30138  1  0  0  0  0
 31 32  1  0  0  0  0
 31139  1  0  0  0  0
 31140  1  0  0  0  0
 32 33  1  0  0  0  0
 32141  1  0  0  0  0
 32142  1  0  0  0  0
 33 34  1  0  0  0  0
 33143  1  0  0  0  0
 33144  1  0  0  0  0
 34 35  1  0  0  0  0
 34145  1  0  0  0  0
 34146  1  0  0  0  0
 35 36  1  0  0  0  0
 35147  1  0  0  0  0
 35148  1  0  0  0  0
 36 37  1  0  0  0  0
 36149  1  0  0  0  0
 36150  1  0  0  0  0
 37 38  1  0  0  0  0
 37151  1  0  0  0  0
 37152  1  0  0  0  0
 38 39  1  0  0  0  0
 38153  1  0  0  0  0
 38154  1  0  0  0  0
 39 40  1  0  0  0  0
 39155  1  0  0  0  0
 39156  1  0  0  0  0
 40 41  1  0  0  0  0
 40157  1  0  0  0  0
 40158  1  0  0  0  0
 41 42  1  0  0  0  0
 41159  1  0  0  0  0
 41160  1  0  0  0  0
 42 43  1  0  0  0  0
 42161  1  0  0  0  0
 42162  1  0  0  0  0
 43 44  1  0  0  0  0
 43163  1  0  0  0  0
 43164  1  0  0  0  0
 44 45  1  0  0  0  0
 44165  1  0  0  0  0
 44166  1  0  0  0  0
 45 46  1  0  0  0  0
 45167  1  0  0  0  0
 45168  1  0  0  0  0
 46 47  1  0  0  0  0
 46169  1  0  0  0  0
 46170  1  0  0  0  0
 47 48  1  0  0  0  0
 47171  1  0  0  0  0
 47172  1  0  0  0  0
 48 49  1  0  0  0  0
 48173  1  0  0  0  0
 48174  1  0  0  0  0
 49 50  1  0  0  0  0
 49175  1  0  0  0  0
 49176  1  0  0  0  0
 50 51  1  0  0  0  0
 50177  1  0  0  0  0
 50178  1  0  0  0  0
 51 52  1  0  0  0  0
 51179  1  0  0  0  0
 51180  1  0  0  0  0
 52 53  1  0  0  0  0
 52181  1  0  0  0  0
 52182  1  0  0  0  0
 53 54  1  0  0  0  0
 53183  1  0  0  0  0
 53184  1  0  0  0  0
 54 55  1  0  0  0  0
 54185  1  0  0  0  0
 54186  1  0  0  0  0
 55 56  1  0  0  0  0
 55187  1  0  0  0  0
 55188  1  0  0  0  0
 56 57  1  0  0  0  0
 56189  1  0  0  0  0
 56190  1  0  0  0  0
 57 58  1  0  0  0  0
 57191  1  0  0  0  0
 57192  1  0  0  0  0
 58 59  1  0  0  0  0
 58193  1  0  0  0  0
 58194  1  0  0  0  0
 59 60  1  0  0  0  0
 59195  1  0  0  0  0
 59196  1  0  0  0  0
 60 61  1  0  0  0  0
 60197  1  0  0  0  0
 60198  1  0  0  0  0
 61 62  1  0  0  0  0
 61199  1  0  0  0  0
 61200  1  0  0  0  0
 62 63  1  0  0  0  0
 62201  1  0  0  0  0
 62202  1  0  0  0  0
 63 64  1  0  0  0  0
 63203  1  0  0  0  0
 63204  1  0  0  0  0
 64 65  1  0  0  0  0
 64205  1  0  0  0  0
 64206  1  0  0  0  0
 65 66  1  0  0  0  0
 65207  1  0  0  0  0
 65208  1  0  0  0  0
 66 67  1  0  0  0  0
 66209  1  0  0  0  0
 66210  1  0  0  0  0
 67 68  1  0  0  0  0
 67211  1  0  0  0  0
 67212  1  0  0  0  0
 68 69  1  0  0  0  0
 68213  1  0  0  0  0
 68214  1  0  0  0  0
 69 70  1  0  0  0  0
 69215  1  0  0  0  0
 69216  1  0  0  0  0
 70 71  1  0  0  0  0
 70217  1  0  0  0  0
 70218  1  0  0  0  0
 71 72  1  0  0  0  0
 71219  1  0  0  0  0
 71220  1  0  0  0  0
 72 73  1  0  0  0  0
 72221  1  0  0  0  0
 72222  1  0  0  0  0
 73 74  1  0  0  0  0
 73223  1  0  0  0  0
 73224  1  0  0  0  0
 74 75  1  0  0  0  0
 74225  1  0  0  0  0
 74226  1  0  0  0  0
 75 76  1  0  0  0  0
 75227  1  0  0  0  0
 75228  1  0  0  0  0
 76 77  1  0  0  0  0
 76229  1  0  0  0  0
 76230  1  0  0  0  0
 77 78  1  0  0  0  0
 77231  1  0  0  0  0
 77232  1  0  0  0  0
 78 79  1  0  0  0  0
 78233  1  0  0  0  0
 78234  1  0  0  0  0
 79 80  1  0  0  0  0
 79235  1  0  0  0  0
 79236  1  0  0  0  0
 80 81  1  0  0  0  0
 80237  1  0  0  0  0
 80238  1  0  0  0  0
 81239  1  0  0  0  0
 81240  1  0  0  0  0
 81241  1  0  0  0  0
M  END
$$$$
