
 OpenBabel04232216473D

 43 44  0  0  0  0  0  0  0  0999 V2000
    2.3855    3.2438    0.7513 C   0  0  0  0  0  0  0  0  0  0  0  0
    3.8187    2.7074    0.7283 C   0  0  0  0  0  0  0  0  0  0  0  0
    3.6749    1.2142    0.6545 C   0  0  0  0  0  0  0  0  0  0  0  0
    4.5336    0.1673    0.5314 C   0  0  0  0  0  0  0  0  0  0  0  0
    5.9575    0.2218    0.5063 C   0  0  0  0  0  0  0  0  0  0  0  0
    6.6573   -1.1330    0.4076 C   0  0  0  0  0  0  0  0  0  0  0  0
    6.6352    1.3882    0.4272 C   0  0  0  0  0  0  0  0  0  0  0  0
    8.1286    1.4509    0.3549 C   0  0  0  0  0  0  0  0  0  0  0  0
    5.9720    2.6132   -0.1517 C   0  0  0  0  0  0  0  0  0  0  0  0
    6.0399    2.6308   -1.4452 N   0  0  0  0  0  0  0  0  0  0  0  0
    6.5583    3.8230   -1.8934 N   0  0  0  0  0  0  0  0  0  0  0  0
    7.6388    3.5309   -2.4479 N   0  0  0  0  0  0  0  0  0  0  0  0
    8.7193    3.9838   -1.6899 N   0  0  0  0  0  0  0  0  0  0  0  0
    8.8641    5.2439   -1.8176 C   0  0  0  0  0  0  0  0  0  0  0  0
    9.8058    5.9888   -0.9799 C   0  0  0  0  0  0  0  0  0  0  0  0
    9.3422    7.2373   -0.8273 C   0  0  0  0  0  0  0  0  0  0  0  0
    9.0156    7.4489    0.6120 C   0  0  0  0  0  0  0  0  0  0  0  0
    9.8389    7.4818    1.4759 O   0  0  0  0  0  0  0  0  0  0  0  0
    7.5863    7.9520    0.8045 C   0  0  0  0  0  0  0  0  0  0  0  0
    7.6987    9.4843    0.9284 C   0  0  0  0  0  0  0  0  0  0  0  0
    6.4238    7.2929    0.8023 N   0  0  0  0  0  0  0  0  0  0  0  0
    6.2137    5.9033    0.4679 C   0  0  0  0  0  0  0  0  0  0  0  0
    5.1842    5.0394    0.8104 C   0  0  0  0  0  0  0  0  0  0  0  0
    4.9630    3.4718    0.5927 C   0  0  0  0  0  0  0  0  0  0  0  0
    1.6465    2.4588    0.4980 H   0  0  0  0  0  0  0  0  0  0  0  0
    2.2382    3.9715   -0.0474 H   0  0  0  0  0  0  0  0  0  0  0  0
    2.0776    3.6200    1.7253 H   0  0  0  0  0  0  0  0  0  0  0  0
    2.6490    0.8216    0.7377 H   0  0  0  0  0  0  0  0  0  0  0  0
    4.0941   -0.8216    0.5073 H   0  0  0  0  0  0  0  0  0  0  0  0
    5.9589   -1.9767    0.3812 H   0  0  0  0  0  0  0  0  0  0  0  0
    7.3370   -1.3065    1.2493 H   0  0  0  0  0  0  0  0  0  0  0  0
    7.2305   -1.1916   -0.5227 H   0  0  0  0  0  0  0  0  0  0  0  0
    8.6112    0.5762    0.7970 H   0  0  0  0  0  0  0  0  0  0  0  0
    8.4847    2.3263    0.8965 H   0  0  0  0  0  0  0  0  0  0  0  0
    8.4599    1.5079   -0.6883 H   0  0  0  0  0  0  0  0  0  0  0  0
    8.1361    5.8416   -2.4195 H   0  0  0  0  0  0  0  0  0  0  0  0
   10.3078    5.4338   -0.1973 H   0  0  0  0  0  0  0  0  0  0  0  0
    8.7001    7.7441   -1.5550 H   0  0  0  0  0  0  0  0  0  0  0  0
    6.7383    9.9985    0.8875 H   0  0  0  0  0  0  0  0  0  0  0  0
    8.3001    9.8695    0.0936 H   0  0  0  0  0  0  0  0  0  0  0  0
    8.2467    9.7759    1.8365 H   0  0  0  0  0  0  0  0  0  0  0  0
    6.8344    5.5801   -0.3297 H   0  0  0  0  0  0  0  0  0  0  0  0
    4.3554    5.4800    1.3767 H   0  0  0  0  0  0  0  0  0  0  0  0
  1  2  1  0  0  0  0
  1 25  1  0  0  0  0
  1 26  1  0  0  0  0
  1 27  1  0  0  0  0
  2  3  1  0  0  0  0
  2 24  2  0  0  0  0
  3  4  2  0  0  0  0
  3 28  1  0  0  0  0
  4  5  1  0  0  0  0
  4 29  1  0  0  0  0
  5  6  1  0  0  0  0
  5  7  2  0  0  0  0
  6 30  1  0  0  0  0
  6 31  1  0  0  0  0
  6 32  1  0  0  0  0
  7  8  1  0  0  0  0
  7  9  1  0  0  0  0
  8 33  1  0  0  0  0
  8 34  1  0  0  0  0
  8 35  1  0  0  0  0
  9 10  2  3  0  0  0
  9 24  1  0  0  0  0
 10 11  1  0  0  0  0
 11 12  2  3  0  0  0
 12 13  1  0  0  0  0
 13 14  2  3  0  0  0
 14 15  1  0  0  0  0
 14 36  1  0  0  0  0
 15 16  2  3  0  0  0
 15 37  1  0  0  0  0
 16 17  1  0  0  0  0
 16 38  1  0  0  0  0
 17 18  2  0  0  0  0
 17 19  1  0  0  0  0
 19 20  1  0  0  0  0
 19 21  2  3  0  0  0
 20 39  1  0  0  0  0
 20 40  1  0  0  0  0
 20 41  1  0  0  0  0
 21 22  1  0  0  0  0
 22 23  2  3  0  0  0
 22 42  1  0  0  0  0
 23 24  1  0  0  0  0
 23 43  1  0  0  0  0
M  END
$$$$
