
 OpenBabel04232216473D

139139  0  0  1  0  0  0  0  0999 V2000
    5.0080   -2.3851    1.3599 C   0  0  0  0  0  0  0  0  0  0  0  0
    4.3180   -1.3774    0.5155 C   0  0  3  0  0  0  0  0  0  0  0  0
    4.8635   -0.1891    0.1518 C   0  0  0  0  0  0  0  0  0  0  0  0
    4.1095    0.0847    1.2281 C   0  0  0  0  0  0  0  0  0  0  0  0
    3.3073   -0.3473    2.2246 O   0  0  0  0  0  0  0  0  0  0  0  0
    2.9087    0.7714    3.0423 O   0  0  0  0  0  0  0  0  0  0  0  0
    3.3453    0.5372    4.4013 O   0  0  0  0  0  0  0  0  0  0  0  0
    2.8912    1.5772    5.2926 O   0  0  0  0  0  0  0  0  0  0  0  0
    3.4072    1.3098    6.6047 O   0  0  0  0  0  0  0  0  0  0  0  0
    2.9394    2.3500    7.4177 C   0  0  0  0  0  0  0  0  0  0  0  0
    3.4431    2.0892    8.6912 O   0  0  0  0  0  0  0  0  0  0  0  0
    2.9396    3.1641    9.4559 O   0  0  0  0  0  0  0  0  0  0  0  0
    3.4024    2.9749   10.7503 O   0  0  0  0  0  0  0  0  0  0  0  0
    2.9246    4.0190   11.5366 O   0  0  0  0  0  0  0  0  0  0  0  0
    3.4173    3.7747   12.8072 O   0  0  0  0  0  0  0  0  0  0  0  0
    2.9423    4.8216   13.6119 O   0  0  0  0  0  0  0  0  0  0  0  0
    3.4417    4.5733   14.8984 O   0  0  0  0  0  0  0  0  0  0  0  0
    2.9370    5.6320   15.6188 O   0  0  0  0  0  0  0  0  0  0  0  0
    3.4087    5.4191   16.8878 O   0  0  0  0  0  0  0  0  0  0  0  0
    2.9235    6.4566   17.6303 O   0  0  0  0  0  0  0  0  0  0  0  0
    3.4058    6.2226   18.8865 O   0  0  0  0  0  0  0  0  0  0  0  0
    2.9246    7.2562   19.6343 O   0  0  0  0  0  0  0  0  0  0  0  0
    3.4069    7.0215   20.8892 O   0  0  0  0  0  0  0  0  0  0  0  0
    2.9256    8.0551   21.6363 O   0  0  0  0  0  0  0  0  0  0  0  0
    3.4057    7.8243   22.8928 O   0  0  0  0  0  0  0  0  0  0  0  0
    2.9237    8.8584   23.6386 O   0  0  0  0  0  0  0  0  0  0  0  0
    3.4042    8.6268   24.8946 O   0  0  0  0  0  0  0  0  0  0  0  0
    2.9225    9.6607   25.6411 O   0  0  0  0  0  0  0  0  0  0  0  0
    3.4028    9.4290   26.8957 O   0  0  0  0  0  0  0  0  0  0  0  0
    2.9211   10.4630   27.6423 O   0  0  0  0  0  0  0  0  0  0  0  0
    3.4014   10.2311   28.8968 O   0  0  0  0  0  0  0  0  0  0  0  0
    2.9196   11.2651   29.6433 O   0  0  0  0  0  0  0  0  0  0  0  0
    3.4000   11.0333   30.8978 O   0  0  0  0  0  0  0  0  0  0  0  0
    2.9182   12.0672   31.6442 O   0  0  0  0  0  0  0  0  0  0  0  0
    3.3985   11.8355   32.8990 O   0  0  0  0  0  0  0  0  0  0  0  0
    2.9168   12.8694   33.6456 O   0  0  0  0  0  0  0  0  0  0  0  0
    3.3971   12.6377   34.9002 O   0  0  0  0  0  0  0  0  0  0  0  0
    2.9146   13.6731   35.6475 O   0  0  0  0  0  0  0  0  0  0  0  0
    3.3956   13.4403   36.9023 O   0  0  0  0  0  0  0  0  0  0  0  0
    2.9126   14.4772   37.6513 O   0  0  0  0  0  0  0  0  0  0  0  0
    3.3934   14.2438   38.9035 O   0  0  0  0  0  0  0  0  0  0  0  0
    2.9129   15.2775   39.6542 O   0  0  0  0  0  0  0  0  0  0  0  0
    3.3955   15.0431   40.9108 O   0  0  0  0  0  0  0  0  0  0  0  0
    2.9125   16.0801   41.6603 O   0  0  0  0  0  0  0  0  0  0  0  0
    3.3909   15.8544   42.9230 O   0  0  0  0  0  0  0  0  0  0  0  0
    2.9010   16.8977   43.6615 O   0  0  0  0  0  0  0  0  0  0  0  0
    3.3787   16.6740   44.9265 O   0  0  0  0  0  0  0  0  0  0  0  0
    2.8844   17.7267   45.6719 O   0  0  0  0  0  0  0  0  0  0  0  0
    3.3577   17.5095   46.9362 O   0  0  0  0  0  0  0  0  0  0  0  0
    2.8948   18.5374   47.7394 O   0  0  0  0  0  0  0  0  0  0  0  0
    3.3875   18.2981   49.0227 O   0  0  0  0  0  0  0  0  0  0  0  0
    2.9236   19.3317   49.8370 O   0  0  0  0  0  0  0  0  0  0  0  0
    3.4159   19.0978   51.1227 O   0  0  0  0  0  0  0  0  0  0  0  0
    2.8886   20.1823   51.8225 C   0  0  0  0  0  0  0  0  0  0  0  0
    3.3935   19.9656   53.1991 C   0  0  0  0  0  0  0  0  0  0  0  0
    2.8894   21.0827   54.0594 C   0  0  0  0  0  0  0  0  0  0  0  0
    3.3995   20.8678   55.4601 C   0  0  0  0  0  0  0  0  0  0  0  0
    2.8956   21.9881   56.3382 C   0  0  0  0  0  0  0  0  0  0  0  0
    3.4015   21.7873   57.7495 C   0  0  0  0  0  0  0  0  0  0  0  0
    2.8962   22.9087   58.6336 C   0  0  0  0  0  0  0  0  0  0  0  0
    3.4028   22.7120   60.0485 C   0  0  0  0  0  0  0  0  0  0  0  0
    2.8994   23.8348   60.9345 C   0  0  0  0  0  0  0  0  0  0  0  0
    3.4044   23.6376   62.3508 C   0  0  0  0  0  0  0  0  0  0  0  0
    2.8995   24.7594   63.2378 C   0  0  0  0  0  0  0  0  0  0  0  0
    3.4060   24.5632   64.6538 C   0  0  0  0  0  0  0  0  0  0  0  0
    2.8995   25.6840   65.5412 C   0  0  0  0  0  0  0  0  0  0  0  0
    3.4061   25.4879   66.9573 C   0  0  0  0  0  0  0  0  0  0  0  0
    2.9011   26.6097   67.8443 C   0  0  0  0  0  0  0  0  0  0  0  0
    3.4094   26.4147   69.2599 C   0  0  0  0  0  0  0  0  0  0  0  0
    2.9028   27.5355   70.1474 C   0  0  0  0  0  0  0  0  0  0  0  0
    3.4127   27.3415   71.5626 C   0  0  0  0  0  0  0  0  0  0  0  0
    2.9078   28.4634   72.4497 C   0  0  0  0  0  0  0  0  0  0  0  0
    3.4175   28.2698   73.8652 C   0  0  0  0  0  0  0  0  0  0  0  0
    2.9137   29.3933   74.7514 C   0  0  0  0  0  0  0  0  0  0  0  0
    3.4209   29.2003   76.1679 C   0  0  0  0  0  0  0  0  0  0  0  0
    2.9174   30.3238   77.0553 C   0  0  0  0  0  0  0  0  0  0  0  0
    3.4265   30.1283   78.4727 C   0  0  0  0  0  0  0  0  0  0  0  0
    2.9259   31.2529   79.3643 C   0  0  0  0  0  0  0  0  0  0  0  0
    3.4281   31.0675   80.7807 C   0  0  0  0  0  0  0  0  0  0  0  0
    5.3371   -3.2127    0.7299 H   0  0  0  0  0  0  0  0  0  0  0  0
    4.3219   -2.7846    2.1160 H   0  0  0  0  0  0  0  0  0  0  0  0
    5.8805   -1.9713    1.8795 H   0  0  0  0  0  0  0  0  0  0  0  0
    3.4155   -1.7083    0.0300 H   0  0  0  0  0  0  0  0  0  0  0  0
    5.4905    0.1468   -0.6336 H   0  0  0  0  0  0  0  0  0  0  0  0
    1.8434    2.3662    7.4688 H   0  0  0  0  0  0  0  0  0  0  0  0
    3.3110    3.3272    7.0847 H   0  0  0  0  0  0  0  0  0  0  0  0
    1.7919   20.1594   51.7631 H   0  0  0  0  0  0  0  0  0  0  0  0
    3.2534   21.1184   51.3781 H   0  0  0  0  0  0  0  0  0  0  0  0
    4.4906   19.9233   53.1846 H   0  0  0  0  0  0  0  0  0  0  0  0
    3.0572   18.9855   53.5625 H   0  0  0  0  0  0  0  0  0  0  0  0
    1.7927   21.0983   54.0421 H   0  0  0  0  0  0  0  0  0  0  0  0
    3.2377   22.0437   53.6610 H   0  0  0  0  0  0  0  0  0  0  0  0
    4.4964   20.8440   55.4579 H   0  0  0  0  0  0  0  0  0  0  0  0
    3.0539   19.8974   55.8380 H   0  0  0  0  0  0  0  0  0  0  0  0
    1.7987   22.0052   56.3265 H   0  0  0  0  0  0  0  0  0  0  0  0
    3.2397   22.9526   55.9447 H   0  0  0  0  0  0  0  0  0  0  0  0
    4.4984   21.7685   57.7535 H   0  0  0  0  0  0  0  0  0  0  0  0
    3.0586   20.8191   58.1347 H   0  0  0  0  0  0  0  0  0  0  0  0
    1.7993   22.9251   58.6262 H   0  0  0  0  0  0  0  0  0  0  0  0
    3.2377   23.8753   58.2432 H   0  0  0  0  0  0  0  0  0  0  0  0
    4.4997   22.6934   60.0538 H   0  0  0  0  0  0  0  0  0  0  0  0
    3.0601   21.7452   60.4373 H   0  0  0  0  0  0  0  0  0  0  0  0
    1.8026   23.8540   60.9273 H   0  0  0  0  0  0  0  0  0  0  0  0
    3.2433   24.8012   60.5455 H   0  0  0  0  0  0  0  0  0  0  0  0
    4.5013   23.6196   62.3578 H   0  0  0  0  0  0  0  0  0  0  0  0
    3.0618   22.6704   62.7390 H   0  0  0  0  0  0  0  0  0  0  0  0
    1.8026   24.7763   63.2317 H   0  0  0  0  0  0  0  0  0  0  0  0
    3.2409   25.7266   62.8487 H   0  0  0  0  0  0  0  0  0  0  0  0
    4.5029   24.5477   64.6600 H   0  0  0  0  0  0  0  0  0  0  0  0
    3.0658   23.5954   65.0423 H   0  0  0  0  0  0  0  0  0  0  0  0
    1.8026   25.6995   65.5350 H   0  0  0  0  0  0  0  0  0  0  0  0
    3.2397   26.6518   65.1527 H   0  0  0  0  0  0  0  0  0  0  0  0
    4.5030   25.4710   66.9633 H   0  0  0  0  0  0  0  0  0  0  0  0
    3.0647   24.5207   67.3463 H   0  0  0  0  0  0  0  0  0  0  0  0
    1.8042   26.6258   67.8394 H   0  0  0  0  0  0  0  0  0  0  0  0
    3.2414   27.5771   67.4545 H   0  0  0  0  0  0  0  0  0  0  0  0
    4.5063   26.4001   69.2649 H   0  0  0  0  0  0  0  0  0  0  0  0
    3.0704   25.4468   69.6493 H   0  0  0  0  0  0  0  0  0  0  0  0
    1.8059   27.5492   70.1434 H   0  0  0  0  0  0  0  0  0  0  0  0
    3.2406   28.5035   69.7572 H   0  0  0  0  0  0  0  0  0  0  0  0
    4.5096   27.3264   71.5663 H   0  0  0  0  0  0  0  0  0  0  0  0
    3.0737   26.3741   71.9532 H   0  0  0  0  0  0  0  0  0  0  0  0
    1.8109   28.4785   72.4459 H   0  0  0  0  0  0  0  0  0  0  0  0
    3.2468   29.4307   72.0589 H   0  0  0  0  0  0  0  0  0  0  0  0
    4.5144   28.2532   73.8687 H   0  0  0  0  0  0  0  0  0  0  0  0
    3.0773   27.3029   74.2562 H   0  0  0  0  0  0  0  0  0  0  0  0
    1.8169   29.4103   74.7460 H   0  0  0  0  0  0  0  0  0  0  0  0
    3.2553   30.3595   74.3603 H   0  0  0  0  0  0  0  0  0  0  0  0
    4.5178   29.1826   76.1727 H   0  0  0  0  0  0  0  0  0  0  0  0
    3.0797   28.2336   76.5584 H   0  0  0  0  0  0  0  0  0  0  0  0
    1.8205   30.3419   77.0501 H   0  0  0  0  0  0  0  0  0  0  0  0
    3.2582   31.2906   76.6645 H   0  0  0  0  0  0  0  0  0  0  0  0
    4.5235   30.1067   78.4734 H   0  0  0  0  0  0  0  0  0  0  0  0
    3.0848   29.1601   78.8595 H   0  0  0  0  0  0  0  0  0  0  0  0
    1.8298   31.2709   79.3611 H   0  0  0  0  0  0  0  0  0  0  0  0
    3.2696   32.2182   78.9747 H   0  0  0  0  0  0  0  0  0  0  0  0
    3.0758   30.1172   81.1943 H   0  0  0  0  0  0  0  0  0  0  0  0
    3.0643   31.8792   81.4152 H   0  0  0  0  0  0  0  0  0  0  0  0
    4.5224   31.0690   80.8060 H   0  0  0  0  0  0  0  0  0  0  0  0
  1  2  1  0  0  0  0
  1 80  1  0  0  0  0
  1 81  1  0  0  0  0
  1 82  1  0  0  0  0
  2  3  1  0  0  0  0
  2  4  1  0  0  0  0
  2 83  1  0  0  0  0
  3  4  2  0  0  0  0
  3 84  1  0  0  0  0
  4  5  1  0  0  0  0
  5  6  1  0  0  0  0
  6  7  1  0  0  0  0
  7  8  1  0  0  0  0
  8  9  1  0  0  0  0
  9 10  1  0  0  0  0
 10 11  1  0  0  0  0
 10 85  1  0  0  0  0
 10 86  1  0  0  0  0
 11 12  1  0  0  0  0
 12 13  1  0  0  0  0
 13 14  1  0  0  0  0
 14 15  1  0  0  0  0
 15 16  1  0  0  0  0
 16 17  1  0  0  0  0
 17 18  1  0  0  0  0
 18 19  1  0  0  0  0
 19 20  1  0  0  0  0
 20 21  1  0  0  0  0
 21 22  1  0  0  0  0
 22 23  1  0  0  0  0
 23 24  1  0  0  0  0
 24 25  1  0  0  0  0
 25 26  1  0  0  0  0
 26 27  1  0  0  0  0
 27 28  1  0  0  0  0
 28 29  1  0  0  0  0
 29 30  1  0  0  0  0
 30 31  1  0  0  0  0
 31 32  1  0  0  0  0
 32 33  1  0  0  0  0
 33 34  1  0  0  0  0
 34 35  1  0  0  0  0
 35 36  1  0  0  0  0
 36 37  1  0  0  0  0
 37 38  1  0  0  0  0
 38 39  1  0  0  0  0
 39 40  1  0  0  0  0
 40 41  1  0  0  0  0
 41 42  1  0  0  0  0
 42 43  1  0  0  0  0
 43 44  1  0  0  0  0
 44 45  1  0  0  0  0
 45 46  1  0  0  0  0
 46 47  1  0  0  0  0
 47 48  1  0  0  0  0
 48 49  1  0  0  0  0
 49 50  1  0  0  0  0
 50 51  1  0  0  0  0
 51 52  1  0  0  0  0
 52 53  1  0  0  0  0
 53 54  1  0  0  0  0
 54 55  1  0  0  0  0
 54 87  1  0  0  0  0
 54 88  1  0  0  0  0
 55 56  1  0  0  0  0
 55 89  1  0  0  0  0
 55 90  1  0  0  0  0
 56 57  1  0  0  0  0
 56 91  1  0  0  0  0
 56 92  1  0  0  0  0
 57 58  1  0  0  0  0
 57 93  1  0  0  0  0
 57 94  1  0  0  0  0
 58 59  1  0  0  0  0
 58 95  1  0  0  0  0
 58 96  1  0  0  0  0
 59 60  1  0  0  0  0
 59 97  1  0  0  0  0
 59 98  1  0  0  0  0
 60 61  1  0  0  0  0
 60 99  1  0  0  0  0
 60100  1  0  0  0  0
 61 62  1  0  0  0  0
 61101  1  0  0  0  0
 61102  1  0  0  0  0
 62 63  1  0  0  0  0
 62103  1  0  0  0  0
 62104  1  0  0  0  0
 63 64  1  0  0  0  0
 63105  1  0  0  0  0
 63106  1  0  0  0  0
 64 65  1  0  0  0  0
 64107  1  0  0  0  0
 64108  1  0  0  0  0
 65 66  1  0  0  0  0
 65109  1  0  0  0  0
 65110  1  0  0  0  0
 66 67  1  0  0  0  0
 66111  1  0  0  0  0
 66112  1  0  0  0  0
 67 68  1  0  0  0  0
 67113  1  0  0  0  0
 67114  1  0  0  0  0
 68 69  1  0  0  0  0
 68115  1  0  0  0  0
 68116  1  0  0  0  0
 69 70  1  0  0  0  0
 69117  1  0  0  0  0
 69118  1  0  0  0  0
 70 71  1  0  0  0  0
 70119  1  0  0  0  0
 70120  1  0  0  0  0
 71 72  1  0  0  0  0
 71121  1  0  0  0  0
 71122  1  0  0  0  0
 72 73  1  0  0  0  0
 72123  1  0  0  0  0
 72124  1  0  0  0  0
 73 74  1  0  0  0  0
 73125  1  0  0  0  0
 73126  1  0  0  0  0
 74 75  1  0  0  0  0
 74127  1  0  0  0  0
 74128  1  0  0  0  0
 75 76  1  0  0  0  0
 75129  1  0  0  0  0
 75130  1  0  0  0  0
 76 77  1  0  0  0  0
 76131  1  0  0  0  0
 76132  1  0  0  0  0
 77 78  1  0  0  0  0
 77133  1  0  0  0  0
 77134  1  0  0  0  0
 78 79  1  0  0  0  0
 78135  1  0  0  0  0
 78136  1  0  0  0  0
 79137  1  0  0  0  0
 79138  1  0  0  0  0
 79139  1  0  0  0  0
M  END
$$$$
