
 OpenBabel04232216563D

219219  0  0  0  0  0  0  0  0999 V2000
    8.2290   -6.0707   -3.7116 C   0  0  0  0  0  0  0  0  0  0  0  0
    7.9228   -5.1930   -4.7585 N   0  0  0  0  0  0  0  0  0  0  0  0
    7.6084   -3.9760   -5.1672 C   0  0  0  0  0  0  0  0  0  0  0  0
    7.2082   -5.0545   -5.8867 C   0  0  0  0  0  0  0  0  0  0  0  0
    6.9017   -6.2752   -6.3831 N   0  0  0  0  0  0  0  0  0  0  0  0
    6.0802   -6.5241   -7.8253 S   0  0  0  0  0  0  0  0  0  0  0  0
    7.4500   -6.6497   -9.4195 S   0  0  0  0  0  0  0  0  0  0  0  0
    6.4142   -6.9914  -11.2560 S   0  0  0  0  0  0  0  0  0  0  0  0
    5.1182   -5.3805  -11.6692 S   0  0  0  0  0  0  0  0  0  0  0  0
    4.1343   -5.7188  -13.4950 S   0  0  0  0  0  0  0  0  0  0  0  0
    2.8235   -4.1366  -13.8985 S   0  0  0  0  0  0  0  0  0  0  0  0
    3.9555   -2.4005  -14.0260 S   0  0  0  0  0  0  0  0  0  0  0  0
    5.1383   -2.6480  -15.4206 C   0  0  0  0  0  0  0  0  0  0  0  0
    4.4162   -2.8826  -16.7423 C   0  0  0  0  0  0  0  0  0  0  0  0
    5.3964   -3.0944  -17.8985 C   0  0  0  0  0  0  0  0  0  0  0  0
    4.6455   -3.3337  -19.2054 C   0  0  0  0  0  0  0  0  0  0  0  0
    5.6211   -3.5472  -20.3573 C   0  0  0  0  0  0  0  0  0  0  0  0
    4.8698   -3.7852  -21.6582 C   0  0  0  0  0  0  0  0  0  0  0  0
    5.8531   -3.9963  -22.7999 C   0  0  0  0  0  0  0  0  0  0  0  0
    5.1027   -4.2340  -24.0985 C   0  0  0  0  0  0  0  0  0  0  0  0
    6.0872   -4.4449  -25.2369 C   0  0  0  0  0  0  0  0  0  0  0  0
    5.3302   -4.6818  -26.5317 C   0  0  0  0  0  0  0  0  0  0  0  0
    6.3117   -4.8924  -27.6690 C   0  0  0  0  0  0  0  0  0  0  0  0
    5.5572   -5.1293  -28.9633 C   0  0  0  0  0  0  0  0  0  0  0  0
    6.5391   -5.3397  -30.0999 C   0  0  0  0  0  0  0  0  0  0  0  0
    5.7851   -5.5767  -31.3943 C   0  0  0  0  0  0  0  0  0  0  0  0
    6.7669   -5.7851  -32.5313 C   0  0  0  0  0  0  0  0  0  0  0  0
    6.0128   -6.0221  -33.8256 C   0  0  0  0  0  0  0  0  0  0  0  0
    6.9947   -6.2324  -34.9622 C   0  0  0  0  0  0  0  0  0  0  0  0
    6.2405   -6.4714  -36.2561 C   0  0  0  0  0  0  0  0  0  0  0  0
    7.2224   -6.6818  -37.3927 C   0  0  0  0  0  0  0  0  0  0  0  0
    6.4683   -6.9188  -38.6870 C   0  0  0  0  0  0  0  0  0  0  0  0
    7.4502   -7.1272  -39.8239 C   0  0  0  0  0  0  0  0  0  0  0  0
    6.6960   -7.3641  -41.1183 C   0  0  0  0  0  0  0  0  0  0  0  0
    7.6780   -7.5725  -42.2552 C   0  0  0  0  0  0  0  0  0  0  0  0
    6.9238   -7.8095  -43.5495 C   0  0  0  0  0  0  0  0  0  0  0  0
    7.9057   -8.0179  -44.6864 C   0  0  0  0  0  0  0  0  0  0  0  0
    7.1515   -8.2548  -45.9807 C   0  0  0  0  0  0  0  0  0  0  0  0
    8.1334   -8.4632  -47.1176 C   0  0  0  0  0  0  0  0  0  0  0  0
    7.3793   -8.6982  -48.4123 C   0  0  0  0  0  0  0  0  0  0  0  0
    8.3612   -8.9046  -49.5496 C   0  0  0  0  0  0  0  0  0  0  0  0
    7.6070   -9.1396  -50.8442 C   0  0  0  0  0  0  0  0  0  0  0  0
    8.5889   -9.3460  -51.9815 C   0  0  0  0  0  0  0  0  0  0  0  0
    7.8348   -9.5810  -53.2762 C   0  0  0  0  0  0  0  0  0  0  0  0
    8.8167   -9.7854  -54.4138 C   0  0  0  0  0  0  0  0  0  0  0  0
    8.0625  -10.0184  -55.7089 C   0  0  0  0  0  0  0  0  0  0  0  0
    9.0444  -10.2248  -56.8461 C   0  0  0  0  0  0  0  0  0  0  0  0
    8.2902  -10.4598  -58.1408 C   0  0  0  0  0  0  0  0  0  0  0  0
    9.2722  -10.6642  -59.2784 C   0  0  0  0  0  0  0  0  0  0  0  0
    8.5180  -10.9012  -60.5727 C   0  0  0  0  0  0  0  0  0  0  0  0
    9.4999  -11.1056  -61.7104 C   0  0  0  0  0  0  0  0  0  0  0  0
    8.7457  -11.3426  -63.0047 C   0  0  0  0  0  0  0  0  0  0  0  0
    9.7276  -11.5450  -64.1427 C   0  0  0  0  0  0  0  0  0  0  0  0
    8.9735  -11.7820  -65.4370 C   0  0  0  0  0  0  0  0  0  0  0  0
    9.9554  -11.9844  -66.5750 C   0  0  0  0  0  0  0  0  0  0  0  0
    9.2012  -12.2194  -67.8696 C   0  0  0  0  0  0  0  0  0  0  0  0
   10.1831  -12.4218  -69.0076 C   0  0  0  0  0  0  0  0  0  0  0  0
    9.4289  -12.6588  -70.3019 C   0  0  0  0  0  0  0  0  0  0  0  0
   10.4109  -12.8632  -71.4395 C   0  0  0  0  0  0  0  0  0  0  0  0
    9.6567  -13.0982  -72.7342 C   0  0  0  0  0  0  0  0  0  0  0  0
   10.6386  -13.3046  -73.8715 C   0  0  0  0  0  0  0  0  0  0  0  0
    9.8844  -13.5415  -75.1658 C   0  0  0  0  0  0  0  0  0  0  0  0
   10.8663  -13.7499  -76.3027 C   0  0  0  0  0  0  0  0  0  0  0  0
   10.1121  -13.9849  -77.5973 C   0  0  0  0  0  0  0  0  0  0  0  0
   11.0941  -14.1953  -78.7339 C   0  0  0  0  0  0  0  0  0  0  0  0
   10.3399  -14.4283  -80.0288 C   0  0  0  0  0  0  0  0  0  0  0  0
   11.3218  -14.6386  -81.1653 C   0  0  0  0  0  0  0  0  0  0  0  0
   10.5676  -14.8736  -82.4599 C   0  0  0  0  0  0  0  0  0  0  0  0
   11.5496  -15.0820  -83.5967 C   0  0  0  0  0  0  0  0  0  0  0  0
   10.7954  -15.3190  -84.8911 C   0  0  0  0  0  0  0  0  0  0  0  0
   11.7774  -15.5293  -86.0277 C   0  0  0  0  0  0  0  0  0  0  0  0
   11.0235  -15.7644  -87.3228 C   0  0  0  0  0  0  0  0  0  0  0  0
   12.0051  -15.9750  -88.4603 C   0  0  0  0  0  0  0  0  0  0  0  0
   11.2512  -16.2121  -89.7557 C   0  0  0  0  0  0  0  0  0  0  0  0
   12.2318  -16.4250  -90.8947 C   0  0  0  0  0  0  0  0  0  0  0  0
   11.4779  -16.6626  -92.1922 C   0  0  0  0  0  0  0  0  0  0  0  0
   12.4583  -16.8759  -93.3337 C   0  0  0  0  0  0  0  0  0  0  0  0
   11.7125  -17.1128  -94.6387 C   0  0  0  0  0  0  0  0  0  0  0  0
   12.6925  -17.3253  -95.7755 C   0  0  0  0  0  0  0  0  0  0  0  0
    8.7115   -5.6015   -2.8457 H   0  0  0  0  0  0  0  0  0  0  0  0
    8.9338   -6.8011   -4.1211 H   0  0  0  0  0  0  0  0  0  0  0  0
    7.3476   -6.6174   -3.3649 H   0  0  0  0  0  0  0  0  0  0  0  0
    8.0856   -3.4287   -4.3661 H   0  0  0  0  0  0  0  0  0  0  0  0
    7.1289   -7.0374   -5.7618 H   0  0  0  0  0  0  0  0  0  0  0  0
    5.7899   -3.4984  -15.1855 H   0  0  0  0  0  0  0  0  0  0  0  0
    5.7831   -1.7585  -15.5037 H   0  0  0  0  0  0  0  0  0  0  0  0
    3.7733   -2.0270  -16.9772 H   0  0  0  0  0  0  0  0  0  0  0  0
    3.7750   -3.7653  -16.6654 H   0  0  0  0  0  0  0  0  0  0  0  0
    6.0448   -3.9540  -17.6934 H   0  0  0  0  0  0  0  0  0  0  0  0
    6.0430   -2.2162  -18.0118 H   0  0  0  0  0  0  0  0  0  0  0  0
    3.9987   -2.4734  -19.4173 H   0  0  0  0  0  0  0  0  0  0  0  0
    3.9955   -4.2123  -19.1090 H   0  0  0  0  0  0  0  0  0  0  0  0
    6.2692   -4.4071  -20.1450 H   0  0  0  0  0  0  0  0  0  0  0  0
    6.2749   -2.6725  -20.4642 H   0  0  0  0  0  0  0  0  0  0  0  0
    4.2245   -2.9252  -21.8791 H   0  0  0  0  0  0  0  0  0  0  0  0
    4.2222   -4.6660  -21.5599 H   0  0  0  0  0  0  0  0  0  0  0  0
    6.5018   -4.8538  -22.5833 H   0  0  0  0  0  0  0  0  0  0  0  0
    6.5035   -3.1191  -22.9020 H   0  0  0  0  0  0  0  0  0  0  0  0
    4.4562   -3.3761  -24.3184 H   0  0  0  0  0  0  0  0  0  0  0  0
    4.4535   -5.1121  -23.9991 H   0  0  0  0  0  0  0  0  0  0  0  0
    6.7326   -5.3048  -25.0185 H   0  0  0  0  0  0  0  0  0  0  0  0
    6.7354   -3.5656  -25.3383 H   0  0  0  0  0  0  0  0  0  0  0  0
    4.6834   -3.8234  -26.7497 H   0  0  0  0  0  0  0  0  0  0  0  0
    4.6808   -5.5598  -26.4305 H   0  0  0  0  0  0  0  0  0  0  0  0
    6.9582   -5.7508  -27.4503 H   0  0  0  0  0  0  0  0  0  0  0  0
    6.9607   -4.0140  -27.7697 H   0  0  0  0  0  0  0  0  0  0  0  0
    4.9104   -4.2707  -29.1818 H   0  0  0  0  0  0  0  0  0  0  0  0
    4.9080   -6.0077  -28.8624 H   0  0  0  0  0  0  0  0  0  0  0  0
    7.1861   -6.1983  -29.8813 H   0  0  0  0  0  0  0  0  0  0  0  0
    7.1885   -4.4613  -30.2007 H   0  0  0  0  0  0  0  0  0  0  0  0
    5.1371   -4.7187  -31.6122 H   0  0  0  0  0  0  0  0  0  0  0  0
    5.1368   -6.4560  -31.2940 H   0  0  0  0  0  0  0  0  0  0  0  0
    7.4149   -6.6430  -32.3134 H   0  0  0  0  0  0  0  0  0  0  0  0
    7.4152   -4.9058  -32.6317 H   0  0  0  0  0  0  0  0  0  0  0  0
    5.3659   -5.1635  -34.0442 H   0  0  0  0  0  0  0  0  0  0  0  0
    5.3635   -6.9005  -33.7248 H   0  0  0  0  0  0  0  0  0  0  0  0
    7.6425   -7.0902  -34.7429 H   0  0  0  0  0  0  0  0  0  0  0  0
    7.6431   -5.3534  -35.0639 H   0  0  0  0  0  0  0  0  0  0  0  0
    5.5927   -5.6137  -36.4754 H   0  0  0  0  0  0  0  0  0  0  0  0
    5.5922   -7.3504  -36.1544 H   0  0  0  0  0  0  0  0  0  0  0  0
    7.8694   -7.5403  -37.1741 H   0  0  0  0  0  0  0  0  0  0  0  0
    7.8717   -5.8033  -37.4935 H   0  0  0  0  0  0  0  0  0  0  0  0
    5.8203   -6.0608  -38.9049 H   0  0  0  0  0  0  0  0  0  0  0  0
    5.8200   -7.7980  -38.5867 H   0  0  0  0  0  0  0  0  0  0  0  0
    8.0982   -7.9851  -39.6061 H   0  0  0  0  0  0  0  0  0  0  0  0
    8.0985   -6.2479  -39.9243 H   0  0  0  0  0  0  0  0  0  0  0  0
    6.0480   -6.5062  -41.3361 H   0  0  0  0  0  0  0  0  0  0  0  0
    6.0478   -8.2434  -41.0179 H   0  0  0  0  0  0  0  0  0  0  0  0
    8.3260   -8.4304  -42.0373 H   0  0  0  0  0  0  0  0  0  0  0  0
    8.3262   -6.6932  -42.3555 H   0  0  0  0  0  0  0  0  0  0  0  0
    6.2758   -6.9515  -43.7674 H   0  0  0  0  0  0  0  0  0  0  0  0
    6.2755   -8.6887  -43.4492 H   0  0  0  0  0  0  0  0  0  0  0  0
    8.5537   -8.8758  -44.4686 H   0  0  0  0  0  0  0  0  0  0  0  0
    8.5540   -7.1386  -44.7867 H   0  0  0  0  0  0  0  0  0  0  0  0
    6.5035   -7.3969  -46.1986 H   0  0  0  0  0  0  0  0  0  0  0  0
    6.5032   -9.1341  -45.8804 H   0  0  0  0  0  0  0  0  0  0  0  0
    8.7805   -9.3220  -46.9004 H   0  0  0  0  0  0  0  0  0  0  0  0
    8.7827   -7.5846  -47.2170 H   0  0  0  0  0  0  0  0  0  0  0  0
    6.7311   -7.8400  -48.6288 H   0  0  0  0  0  0  0  0  0  0  0  0
    6.7311   -9.5777  -48.3134 H   0  0  0  0  0  0  0  0  0  0  0  0
    9.0093   -9.7628  -49.3331 H   0  0  0  0  0  0  0  0  0  0  0  0
    9.0093   -8.0251  -49.6485 H   0  0  0  0  0  0  0  0  0  0  0  0
    6.9589   -8.2814  -51.0607 H   0  0  0  0  0  0  0  0  0  0  0  0
    6.9589  -10.0191  -50.7453 H   0  0  0  0  0  0  0  0  0  0  0  0
    9.2371  -10.2042  -51.7651 H   0  0  0  0  0  0  0  0  0  0  0  0
    9.2371   -8.4665  -52.0804 H   0  0  0  0  0  0  0  0  0  0  0  0
    7.1856   -8.7234  -53.4919 H   0  0  0  0  0  0  0  0  0  0  0  0
    7.1877  -10.4613  -53.1777 H   0  0  0  0  0  0  0  0  0  0  0  0
    9.4649  -10.6438  -54.1987 H   0  0  0  0  0  0  0  0  0  0  0  0
    9.4647   -8.9056  -54.5114 H   0  0  0  0  0  0  0  0  0  0  0  0
    7.4153   -9.1593  -55.9246 H   0  0  0  0  0  0  0  0  0  0  0  0
    7.4134  -10.8973  -55.6109 H   0  0  0  0  0  0  0  0  0  0  0  0
    9.6926  -11.0830  -56.6297 H   0  0  0  0  0  0  0  0  0  0  0  0
    9.6926   -9.3453  -56.9450 H   0  0  0  0  0  0  0  0  0  0  0  0
    7.6410   -9.6022  -58.3565 H   0  0  0  0  0  0  0  0  0  0  0  0
    7.6432  -11.3401  -58.0423 H   0  0  0  0  0  0  0  0  0  0  0  0
    9.9223  -11.5209  -59.0621 H   0  0  0  0  0  0  0  0  0  0  0  0
    9.9183   -9.7833  -59.3778 H   0  0  0  0  0  0  0  0  0  0  0  0
    7.8678  -10.0445  -60.7891 H   0  0  0  0  0  0  0  0  0  0  0  0
    7.8719  -11.7821  -60.4734 H   0  0  0  0  0  0  0  0  0  0  0  0
   10.1501  -11.9623  -61.4940 H   0  0  0  0  0  0  0  0  0  0  0  0
   10.1460  -10.2246  -61.8097 H   0  0  0  0  0  0  0  0  0  0  0  0
    8.0945  -10.4865  -63.2203 H   0  0  0  0  0  0  0  0  0  0  0  0
    8.1007  -12.2244  -62.9058 H   0  0  0  0  0  0  0  0  0  0  0  0
   10.3789  -12.4011  -63.9271 H   0  0  0  0  0  0  0  0  0  0  0  0
   10.3727  -10.6632  -64.2416 H   0  0  0  0  0  0  0  0  0  0  0  0
    8.3222  -10.9259  -65.6526 H   0  0  0  0  0  0  0  0  0  0  0  0
    8.3284  -12.6638  -65.3381 H   0  0  0  0  0  0  0  0  0  0  0  0
   10.6057  -12.8413  -66.3600 H   0  0  0  0  0  0  0  0  0  0  0  0
   10.6014  -11.1032  -66.6730 H   0  0  0  0  0  0  0  0  0  0  0  0
    8.5509  -11.3625  -68.0846 H   0  0  0  0  0  0  0  0  0  0  0  0
    8.5552  -13.1006  -67.7716 H   0  0  0  0  0  0  0  0  0  0  0  0
   10.8343  -13.2779  -68.7920 H   0  0  0  0  0  0  0  0  0  0  0  0
   10.8281  -11.5400  -69.1065 H   0  0  0  0  0  0  0  0  0  0  0  0
    8.7787  -11.8021  -70.5182 H   0  0  0  0  0  0  0  0  0  0  0  0
    8.7828  -13.5397  -70.2026 H   0  0  0  0  0  0  0  0  0  0  0  0
   11.0601  -13.7207  -71.2237 H   0  0  0  0  0  0  0  0  0  0  0  0
   11.0579  -11.9828  -71.5380 H   0  0  0  0  0  0  0  0  0  0  0  0
    9.0086  -12.2400  -72.9506 H   0  0  0  0  0  0  0  0  0  0  0  0
    9.0086  -13.9777  -72.6352 H   0  0  0  0  0  0  0  0  0  0  0  0
   11.2876  -14.1619  -73.6544 H   0  0  0  0  0  0  0  0  0  0  0  0
   11.2857  -12.4244  -73.9713 H   0  0  0  0  0  0  0  0  0  0  0  0
    9.2364  -12.6836  -75.3836 H   0  0  0  0  0  0  0  0  0  0  0  0
    9.2362  -14.4208  -75.0655 H   0  0  0  0  0  0  0  0  0  0  0  0
   11.5133  -14.6088  -76.0855 H   0  0  0  0  0  0  0  0  0  0  0  0
   11.5155  -12.8713  -76.4022 H   0  0  0  0  0  0  0  0  0  0  0  0
    9.4662  -13.1255  -77.8153 H   0  0  0  0  0  0  0  0  0  0  0  0
    9.4619  -14.8628  -77.4975 H   0  0  0  0  0  0  0  0  0  0  0  0
   11.7391  -15.0556  -78.5166 H   0  0  0  0  0  0  0  0  0  0  0  0
   11.7453  -13.3180  -78.8329 H   0  0  0  0  0  0  0  0  0  0  0  0
    9.6949  -13.5679  -80.2461 H   0  0  0  0  0  0  0  0  0  0  0  0
    9.6887  -15.3055  -79.9299 H   0  0  0  0  0  0  0  0  0  0  0  0
   11.9678  -15.4981  -80.9474 H   0  0  0  0  0  0  0  0  0  0  0  0
   11.9721  -13.7608  -81.2652 H   0  0  0  0  0  0  0  0  0  0  0  0
    9.9206  -14.0148  -82.6771 H   0  0  0  0  0  0  0  0  0  0  0  0
    9.9184  -15.7523  -82.3604 H   0  0  0  0  0  0  0  0  0  0  0  0
   12.1975  -15.9399  -83.3788 H   0  0  0  0  0  0  0  0  0  0  0  0
   12.1978  -14.2027  -83.6970 H   0  0  0  0  0  0  0  0  0  0  0  0
   10.1485  -14.4604  -85.1095 H   0  0  0  0  0  0  0  0  0  0  0  0
   10.1461  -16.1974  -84.7902 H   0  0  0  0  0  0  0  0  0  0  0  0
   12.4233  -16.3887  -85.8094 H   0  0  0  0  0  0  0  0  0  0  0  0
   12.4277  -14.6515  -86.1273 H   0  0  0  0  0  0  0  0  0  0  0  0
   10.3775  -14.9049  -87.5403 H   0  0  0  0  0  0  0  0  0  0  0  0
   10.3732  -16.6422  -87.2224 H   0  0  0  0  0  0  0  0  0  0  0  0
   12.6520  -16.8334  -88.2411 H   0  0  0  0  0  0  0  0  0  0  0  0
   12.6544  -15.0964  -88.5605 H   0  0  0  0  0  0  0  0  0  0  0  0
   10.6053  -15.3527  -89.9739 H   0  0  0  0  0  0  0  0  0  0  0  0
   10.6008  -17.0895  -89.6532 H   0  0  0  0  0  0  0  0  0  0  0  0
   12.8776  -17.2839  -90.6741 H   0  0  0  0  0  0  0  0  0  0  0  0
   12.8822  -15.5473  -90.9947 H   0  0  0  0  0  0  0  0  0  0  0  0
   10.8321  -15.8028  -92.4088 H   0  0  0  0  0  0  0  0  0  0  0  0
   10.8275  -17.5397  -92.0882 H   0  0  0  0  0  0  0  0  0  0  0  0
   13.1034  -17.7347  -93.1102 H   0  0  0  0  0  0  0  0  0  0  0  0
   13.1099  -15.9984  -93.4291 H   0  0  0  0  0  0  0  0  0  0  0  0
   11.0692  -16.2537  -94.8621 H   0  0  0  0  0  0  0  0  0  0  0  0
   11.0627  -17.9906  -94.5430 H   0  0  0  0  0  0  0  0  0  0  0  0
   13.3362  -16.4486  -95.8997 H   0  0  0  0  0  0  0  0  0  0  0  0
   12.1554  -17.4953  -96.7121 H   0  0  0  0  0  0  0  0  0  0  0  0
   13.3297  -18.1936  -95.5792 H   0  0  0  0  0  0  0  0  0  0  0  0
  1  2  1  0  0  0  0
  1 80  1  0  0  0  0
  1 81  1  0  0  0  0
  1 82  1  0  0  0  0
  2  3  1  0  0  0  0
  2  4  1  0  0  0  0
  3  4  2  0  0  0  0
  3 83  1  0  0  0  0
  4  5  1  0  0  0  0
  5  6  1  0  0  0  0
  5 84  1  0  0  0  0
  6  7  1  0  0  0  0
  7  8  1  0  0  0  0
  8  9  1  0  0  0  0
  9 10  1  0  0  0  0
 10 11  1  0  0  0  0
 11 12  1  0  0  0  0
 12 13  1  0  0  0  0
 13 14  1  0  0  0  0
 13 85  1  0  0  0  0
 13 86  1  0  0  0  0
 14 15  1  0  0  0  0
 14 87  1  0  0  0  0
 14 88  1  0  0  0  0
 15 16  1  0  0  0  0
 15 89  1  0  0  0  0
 15 90  1  0  0  0  0
 16 17  1  0  0  0  0
 16 91  1  0  0  0  0
 16 92  1  0  0  0  0
 17 18  1  0  0  0  0
 17 93  1  0  0  0  0
 17 94  1  0  0  0  0
 18 19  1  0  0  0  0
 18 95  1  0  0  0  0
 18 96  1  0  0  0  0
 19 20  1  0  0  0  0
 19 97  1  0  0  0  0
 19 98  1  0  0  0  0
 20 21  1  0  0  0  0
 20 99  1  0  0  0  0
 20100  1  0  0  0  0
 21 22  1  0  0  0  0
 21101  1  0  0  0  0
 21102  1  0  0  0  0
 22 23  1  0  0  0  0
 22103  1  0  0  0  0
 22104  1  0  0  0  0
 23 24  1  0  0  0  0
 23105  1  0  0  0  0
 23106  1  0  0  0  0
 24 25  1  0  0  0  0
 24107  1  0  0  0  0
 24108  1  0  0  0  0
 25 26  1  0  0  0  0
 25109  1  0  0  0  0
 25110  1  0  0  0  0
 26 27  1  0  0  0  0
 26111  1  0  0  0  0
 26112  1  0  0  0  0
 27 28  1  0  0  0  0
 27113  1  0  0  0  0
 27114  1  0  0  0  0
 28 29  1  0  0  0  0
 28115  1  0  0  0  0
 28116  1  0  0  0  0
 29 30  1  0  0  0  0
 29117  1  0  0  0  0
 29118  1  0  0  0  0
 30 31  1  0  0  0  0
 30119  1  0  0  0  0
 30120  1  0  0  0  0
 31 32  1  0  0  0  0
 31121  1  0  0  0  0
 31122  1  0  0  0  0
 32 33  1  0  0  0  0
 32123  1  0  0  0  0
 32124  1  0  0  0  0
 33 34  1  0  0  0  0
 33125  1  0  0  0  0
 33126  1  0  0  0  0
 34 35  1  0  0  0  0
 34127  1  0  0  0  0
 34128  1  0  0  0  0
 35 36  1  0  0  0  0
 35129  1  0  0  0  0
 35130  1  0  0  0  0
 36 37  1  0  0  0  0
 36131  1  0  0  0  0
 36132  1  0  0  0  0
 37 38  1  0  0  0  0
 37133  1  0  0  0  0
 37134  1  0  0  0  0
 38 39  1  0  0  0  0
 38135  1  0  0  0  0
 38136  1  0  0  0  0
 39 40  1  0  0  0  0
 39137  1  0  0  0  0
 39138  1  0  0  0  0
 40 41  1  0  0  0  0
 40139  1  0  0  0  0
 40140  1  0  0  0  0
 41 42  1  0  0  0  0
 41141  1  0  0  0  0
 41142  1  0  0  0  0
 42 43  1  0  0  0  0
 42143  1  0  0  0  0
 42144  1  0  0  0  0
 43 44  1  0  0  0  0
 43145  1  0  0  0  0
 43146  1  0  0  0  0
 44 45  1  0  0  0  0
 44147  1  0  0  0  0
 44148  1  0  0  0  0
 45 46  1  0  0  0  0
 45149  1  0  0  0  0
 45150  1  0  0  0  0
 46 47  1  0  0  0  0
 46151  1  0  0  0  0
 46152  1  0  0  0  0
 47 48  1  0  0  0  0
 47153  1  0  0  0  0
 47154  1  0  0  0  0
 48 49  1  0  0  0  0
 48155  1  0  0  0  0
 48156  1  0  0  0  0
 49 50  1  0  0  0  0
 49157  1  0  0  0  0
 49158  1  0  0  0  0
 50 51  1  0  0  0  0
 50159  1  0  0  0  0
 50160  1  0  0  0  0
 51 52  1  0  0  0  0
 51161  1  0  0  0  0
 51162  1  0  0  0  0
 52 53  1  0  0  0  0
 52163  1  0  0  0  0
 52164  1  0  0  0  0
 53 54  1  0  0  0  0
 53165  1  0  0  0  0
 53166  1  0  0  0  0
 54 55  1  0  0  0  0
 54167  1  0  0  0  0
 54168  1  0  0  0  0
 55 56  1  0  0  0  0
 55169  1  0  0  0  0
 55170  1  0  0  0  0
 56 57  1  0  0  0  0
 56171  1  0  0  0  0
 56172  1  0  0  0  0
 57 58  1  0  0  0  0
 57173  1  0  0  0  0
 57174  1  0  0  0  0
 58 59  1  0  0  0  0
 58175  1  0  0  0  0
 58176  1  0  0  0  0
 59 60  1  0  0  0  0
 59177  1  0  0  0  0
 59178  1  0  0  0  0
 60 61  1  0  0  0  0
 60179  1  0  0  0  0
 60180  1  0  0  0  0
 61 62  1  0  0  0  0
 61181  1  0  0  0  0
 61182  1  0  0  0  0
 62 63  1  0  0  0  0
 62183  1  0  0  0  0
 62184  1  0  0  0  0
 63 64  1  0  0  0  0
 63185  1  0  0  0  0
 63186  1  0  0  0  0
 64 65  1  0  0  0  0
 64187  1  0  0  0  0
 64188  1  0  0  0  0
 65 66  1  0  0  0  0
 65189  1  0  0  0  0
 65190  1  0  0  0  0
 66 67  1  0  0  0  0
 66191  1  0  0  0  0
 66192  1  0  0  0  0
 67 68  1  0  0  0  0
 67193  1  0  0  0  0
 67194  1  0  0  0  0
 68 69  1  0  0  0  0
 68195  1  0  0  0  0
 68196  1  0  0  0  0
 69 70  1  0  0  0  0
 69197  1  0  0  0  0
 69198  1  0  0  0  0
 70 71  1  0  0  0  0
 70199  1  0  0  0  0
 70200  1  0  0  0  0
 71 72  1  0  0  0  0
 71201  1  0  0  0  0
 71202  1  0  0  0  0
 72 73  1  0  0  0  0
 72203  1  0  0  0  0
 72204  1  0  0  0  0
 73 74  1  0  0  0  0
 73205  1  0  0  0  0
 73206  1  0  0  0  0
 74 75  1  0  0  0  0
 74207  1  0  0  0  0
 74208  1  0  0  0  0
 75 76  1  0  0  0  0
 75209  1  0  0  0  0
 75210  1  0  0  0  0
 76 77  1  0  0  0  0
 76211  1  0  0  0  0
 76212  1  0  0  0  0
 77 78  1  0  0  0  0
 77213  1  0  0  0  0
 77214  1  0  0  0  0
 78 79  1  0  0  0  0
 78215  1  0  0  0  0
 78216  1  0  0  0  0
 79217  1  0  0  0  0
 79218  1  0  0  0  0
 79219  1  0  0  0  0
M  END
$$$$
