
 OpenBabel04232216523D

 75 75  0  0  0  0  0  0  0  0999 V2000
    2.4635    0.5627   -1.8821 C   0  0  0  0  0  0  0  0  0  0  0  0
    4.6015    0.2344   -1.7784 C   0  0  0  0  0  0  0  0  0  0  0  0
    6.9305    0.2008   -1.9613 C   0  0  0  0  0  0  0  0  0  0  0  0
    9.2373    0.5241   -2.6147 C   0  0  0  0  0  0  0  0  0  0  0  0
    7.3350    0.9218   -3.2266 C   0  0  0  0  0  0  0  0  0  0  0  0
    8.3716    1.1934   -2.1913 C   0  0  0  0  0  0  0  0  0  0  0  0
    7.9053    1.5927   -4.0578 C   0  0  0  0  0  0  0  0  0  0  0  0
    9.2854    1.6065   -4.1999 C   0  0  0  0  0  0  0  0  0  0  0  0
    9.8972    1.9838   -5.2965 C   0  0  0  0  0  0  0  0  0  0  0  0
   11.2581    1.9294   -4.8626 C   0  0  0  0  0  0  0  0  0  0  0  0
   11.3249    2.2627   -6.2360 C   0  0  0  0  0  0  0  0  0  0  0  0
   12.6329    2.1317   -6.0751 C   0  0  0  0  0  0  0  0  0  0  0  0
   13.8172    2.7473   -6.3429 C   0  0  0  0  0  0  0  0  0  0  0  0
   14.4966    2.4121   -4.5519 C   0  0  0  0  0  0  0  0  0  0  0  0
   15.4287    2.0065   -3.7593 O   0  0  0  0  0  0  0  0  0  0  0  0
   14.4497    1.1454   -5.6329 C   0  0  0  0  0  0  0  0  0  0  0  0
   13.3253    0.8825   -4.2830 C   0  0  0  0  0  0  0  0  0  0  0  0
   15.5658    1.1010   -5.5383 C   0  0  0  0  0  0  0  0  0  0  0  0
   17.5029    1.4919   -6.9812 C   0  0  0  0  0  0  0  0  0  0  0  0
   19.5208    1.8281   -8.0889 C   0  0  0  0  0  0  0  0  0  0  0  0
   21.6822    1.7440   -8.4321 C   0  0  0  0  0  0  0  0  0  0  0  0
   23.2235    2.1772   -9.6991 C   0  0  0  0  0  0  0  0  0  0  0  0
   23.4805    1.5361  -11.3039 C   0  0  0  0  0  0  0  0  0  0  0  0
   22.4028    1.8781  -12.3666 C   0  0  0  0  0  0  0  0  0  0  0  0
   22.2540    3.3796  -12.6187 C   0  0  0  0  0  0  0  0  0  0  0  0
   21.1579    3.6774  -13.6436 C   0  0  0  0  0  0  0  0  0  0  0  0
   21.0249    5.1735  -13.8617 C   0  0  0  0  0  0  0  0  0  0  0  0
   11.2655    0.5711   -3.5157 N   0  0  0  0  0  0  0  0  0  0  0  0
    1.3740   -0.2356   -1.4239 H   0  0  0  0  0  0  0  0  0  0  0  0
    1.5493    0.5159   -2.8619 H   0  0  0  0  0  0  0  0  0  0  0  0
    1.5130    1.3840   -1.3177 H   0  0  0  0  0  0  0  0  0  0  0  0
    3.9352   -0.7394   -2.2183 H   0  0  0  0  0  0  0  0  0  0  0  0
    3.9235    0.2551   -0.5468 H   0  0  0  0  0  0  0  0  0  0  0  0
    6.2690   -0.7952   -1.4336 H   0  0  0  0  0  0  0  0  0  0  0  0
    6.2120    0.6114   -0.7732 H   0  0  0  0  0  0  0  0  0  0  0  0
    6.3010    1.9385   -3.0413 H   0  0  0  0  0  0  0  0  0  0  0  0
    6.2333    0.2399   -3.6399 H   0  0  0  0  0  0  0  0  0  0  0  0
    8.3003   -0.3746   -1.9165 H   0  0  0  0  0  0  0  0  0  0  0  0
    7.7654    1.8246   -1.3337 H   0  0  0  0  0  0  0  0  0  0  0  0
    7.3968    2.6019   -4.1623 H   0  0  0  0  0  0  0  0  0  0  0  0
    7.4643    0.6435   -4.8871 H   0  0  0  0  0  0  0  0  0  0  0  0
    9.5348    0.3124   -4.3017 H   0  0  0  0  0  0  0  0  0  0  0  0
    9.5997    2.3291   -3.3167 H   0  0  0  0  0  0  0  0  0  0  0  0
    9.5368    2.9760   -5.2022 H   0  0  0  0  0  0  0  0  0  0  0  0
    9.6506    1.0352   -5.8025 H   0  0  0  0  0  0  0  0  0  0  0  0
   11.6862    0.6550   -4.9889 H   0  0  0  0  0  0  0  0  0  0  0  0
   11.7034    2.5820   -3.8372 H   0  0  0  0  0  0  0  0  0  0  0  0
   11.3675    3.3174   -6.1808 H   0  0  0  0  0  0  0  0  0  0  0  0
   11.2768    1.2477   -6.7016 H   0  0  0  0  0  0  0  0  0  0  0  0
   12.7705    0.8610   -6.2137 H   0  0  0  0  0  0  0  0  0  0  0  0
   12.8168    2.9283   -5.2252 H   0  0  0  0  0  0  0  0  0  0  0  0
   13.9141    3.6487   -6.8403 H   0  0  0  0  0  0  0  0  0  0  0  0
   13.7260    1.8017   -7.4101 H   0  0  0  0  0  0  0  0  0  0  0  0
   15.0488    1.8386   -6.8775 H   0  0  0  0  0  0  0  0  0  0  0  0
   16.5397    0.3301   -5.4952 H   0  0  0  0  0  0  0  0  0  0  0  0
   16.6939    2.0201   -5.2523 H   0  0  0  0  0  0  0  0  0  0  0  0
   17.5993    2.2160   -8.0650 H   0  0  0  0  0  0  0  0  0  0  0  0
   18.2673    0.4895   -7.4376 H   0  0  0  0  0  0  0  0  0  0  0  0
   20.0283    2.9870   -8.7045 H   0  0  0  0  0  0  0  0  0  0  0  0
   19.8764    1.5466   -9.4653 H   0  0  0  0  0  0  0  0  0  0  0  0
   22.1831    0.7256   -8.5213 H   0  0  0  0  0  0  0  0  0  0  0  0
   22.3836    2.2895   -7.6818 H   0  0  0  0  0  0  0  0  0  0  0  0
   24.3503    1.8753   -9.3274 H   0  0  0  0  0  0  0  0  0  0  0  0
   23.4687    3.2591   -9.9704 H   0  0  0  0  0  0  0  0  0  0  0  0
   23.5748    0.4405  -11.2682 H   0  0  0  0  0  0  0  0  0  0  0  0
   24.4583    1.9006  -11.7575 H   0  0  0  0  0  0  0  0  0  0  0  0
   21.4357    1.4792  -12.0457 H   0  0  0  0  0  0  0  0  0  0  0  0
   22.6339    1.3969  -13.3421 H   0  0  0  0  0  0  0  0  0  0  0  0
   23.2004    3.7986  -12.9821 H   0  0  0  0  0  0  0  0  0  0  0  0
   22.0053    3.8843  -11.6799 H   0  0  0  0  0  0  0  0  0  0  0  0
   20.1997    3.2778  -13.2932 H   0  0  0  0  0  0  0  0  0  0  0  0
   21.3945    3.1938  -14.5980 H   0  0  0  0  0  0  0  0  0  0  0  0
   20.7684    5.6753  -12.9235 H   0  0  0  0  0  0  0  0  0  0  0  0
   20.2402    5.3842  -14.5938 H   0  0  0  0  0  0  0  0  0  0  0  0
   21.9665    5.5911  -14.2319 H   0  0  0  0  0  0  0  0  0  0  0  0
  1  2  1  0  0  0  0
  1 29  1  0  0  0  0
  1 30  1  0  0  0  0
  1 31  1  0  0  0  0
  2  3  1  0  0  0  0
  2 32  1  0  0  0  0
  2 33  1  0  0  0  0
  3  4  1  0  0  0  0
  3 34  1  0  0  0  0
  3 35  1  0  0  0  0
  4  5  1  0  0  0  0
  4 28  2  3  0  0  0
  5  6  1  0  0  0  0
  5 36  1  0  0  0  0
  5 37  1  0  0  0  0
  6  7  1  0  0  0  0
  6 38  1  0  0  0  0
  6 39  1  0  0  0  0
  7  8  1  0  0  0  0
  7 40  1  0  0  0  0
  7 41  1  0  0  0  0
  8  9  1  0  0  0  0
  8 42  1  0  0  0  0
  8 43  1  0  0  0  0
  9 10  1  0  0  0  0
  9 44  1  0  0  0  0
  9 45  1  0  0  0  0
 10 11  1  0  0  0  0
 10 46  1  0  0  0  0
 10 47  1  0  0  0  0
 11 12  1  0  0  0  0
 11 48  1  0  0  0  0
 11 49  1  0  0  0  0
 12 13  1  0  0  0  0
 12 50  1  0  0  0  0
 12 51  1  0  0  0  0
 13 14  1  0  0  0  0
 13 52  1  0  0  0  0
 13 53  1  0  0  0  0
 14 15  2  0  0  0  0
 14 16  1  0  0  0  0
 16 17  2  3  0  0  0
 16 54  1  0  0  0  0
 17 18  1  0  0  0  0
 17 28  1  0  0  0  0
 18 19  1  0  0  0  0
 18 55  1  0  0  0  0
 18 56  1  0  0  0  0
 19 20  1  0  0  0  0
 19 57  1  0  0  0  0
 19 58  1  0  0  0  0
 20 21  1  0  0  0  0
 20 59  1  0  0  0  0
 20 60  1  0  0  0  0
 21 22  1  0  0  0  0
 21 61  1  0  0  0  0
 21 62  1  0  0  0  0
 22 23  1  0  0  0  0
 22 63  1  0  0  0  0
 22 64  1  0  0  0  0
 23 24  1  0  0  0  0
 23 65  1  0  0  0  0
 23 66  1  0  0  0  0
 24 25  1  0  0  0  0
 24 67  1  0  0  0  0
 24 68  1  0  0  0  0
 25 26  1  0  0  0  0
 25 69  1  0  0  0  0
 25 70  1  0  0  0  0
 26 27  1  0  0  0  0
 26 71  1  0  0  0  0
 26 72  1  0  0  0  0
 27 73  1  0  0  0  0
 27 74  1  0  0  0  0
 27 75  1  0  0  0  0
M  END
$$$$
