
 OpenBabel04232216433D

 56 58  0  0  0  0  0  0  0  0999 V2000
    4.9384   -1.2816    3.6437 C   0  0  0  0  0  0  0  0  0  0  0  0
    4.3159   -0.7752    2.3529 C   0  0  0  0  0  0  0  0  0  0  0  0
    3.6617   -1.4682    1.3738 C   0  0  0  0  0  0  0  0  0  0  0  0
    4.4800   -1.5380    0.1421 C   0  0  0  0  0  0  0  0  0  0  0  0
    5.4332   -2.4875    0.3405 C   0  0  0  0  0  0  0  0  0  0  0  0
    6.7820   -2.0759    0.4757 C   0  0  0  0  0  0  0  0  0  0  0  0
    7.5543   -2.9124    1.2241 C   0  0  0  0  0  0  0  0  0  0  0  0
    8.8637   -2.6683    1.6878 C   0  0  0  0  0  0  0  0  0  0  0  0
    9.5435   -1.3920    1.1726 C   0  0  0  0  0  0  0  0  0  0  0  0
    9.3497   -3.4559    2.6562 C   0  0  0  0  0  0  0  0  0  0  0  0
    8.5860   -4.6130    3.5219 C   0  0  0  0  0  0  0  0  0  0  0  0
    7.6983   -5.8235    3.0845 C   0  0  0  0  0  0  0  0  0  0  0  0
    8.3239   -6.8954    2.2496 C   0  0  0  0  0  0  0  0  0  0  0  0
    9.6809   -6.8423    1.9416 C   0  0  0  0  0  0  0  0  0  0  0  0
   10.2081   -7.6793    0.9671 C   0  0  0  0  0  0  0  0  0  0  0  0
    9.3980   -8.6233    0.3466 C   0  0  0  0  0  0  0  0  0  0  0  0
    8.0721   -8.7797    0.7448 C   0  0  0  0  0  0  0  0  0  0  0  0
    7.5344   -7.9219    1.7050 C   0  0  0  0  0  0  0  0  0  0  0  0
   10.5191   -2.8189    3.2979 C   0  0  0  0  0  0  0  0  0  0  0  0
   11.8505   -2.7093    2.5065 C   0  0  0  0  0  0  0  0  0  0  0  0
   10.3216   -2.1833    4.4917 C   0  0  0  0  0  0  0  0  0  0  0  0
   11.5716   -2.4270    5.2813 C   0  0  0  0  0  0  0  0  0  0  0  0
   11.4893   -3.4929    6.1042 C   0  0  0  0  0  0  0  0  0  0  0  0
   10.1954   -3.8530    6.6484 C   0  0  0  0  0  0  0  0  0  0  0  0
    9.0184   -3.2177    6.3473 C   0  0  0  0  0  0  0  0  0  0  0  0
    8.8973   -2.2113    5.1926 C   0  0  0  0  0  0  0  0  0  0  0  0
    7.6884   -1.7927    4.5770 C   0  0  0  0  0  0  0  0  0  0  0  0
    6.2148   -1.5346    4.1050 C   0  0  0  0  0  0  0  0  0  0  0  0
    4.0911   -1.5443    4.2813 H   0  0  0  0  0  0  0  0  0  0  0  0
    4.2983    0.3031    2.1766 H   0  0  0  0  0  0  0  0  0  0  0  0
    3.2398   -2.4747    1.5058 H   0  0  0  0  0  0  0  0  0  0  0  0
    4.7154   -0.6321   -0.4008 H   0  0  0  0  0  0  0  0  0  0  0  0
    5.1759   -3.3223    0.9950 H   0  0  0  0  0  0  0  0  0  0  0  0
    7.0839   -1.0737    0.2361 H   0  0  0  0  0  0  0  0  0  0  0  0
    7.0855   -3.7859    1.6187 H   0  0  0  0  0  0  0  0  0  0  0  0
    8.8901   -0.6472    0.7324 H   0  0  0  0  0  0  0  0  0  0  0  0
   10.2543   -1.6656    0.3905 H   0  0  0  0  0  0  0  0  0  0  0  0
   10.0415   -0.8222    1.9689 H   0  0  0  0  0  0  0  0  0  0  0  0
    7.8317   -4.0924    4.1151 H   0  0  0  0  0  0  0  0  0  0  0  0
    9.2893   -5.0193    4.2630 H   0  0  0  0  0  0  0  0  0  0  0  0
    6.7968   -5.4693    2.5754 H   0  0  0  0  0  0  0  0  0  0  0  0
    7.3098   -6.3044    4.0013 H   0  0  0  0  0  0  0  0  0  0  0  0
   10.3297   -6.1151    2.4160 H   0  0  0  0  0  0  0  0  0  0  0  0
   11.2454   -7.5570    0.6758 H   0  0  0  0  0  0  0  0  0  0  0  0
    9.8034   -9.2351   -0.4539 H   0  0  0  0  0  0  0  0  0  0  0  0
    7.4519   -9.5400    0.2787 H   0  0  0  0  0  0  0  0  0  0  0  0
    6.4874   -8.0372    1.9851 H   0  0  0  0  0  0  0  0  0  0  0  0
   11.7397   -2.2789    1.5114 H   0  0  0  0  0  0  0  0  0  0  0  0
   12.3595   -3.6645    2.3747 H   0  0  0  0  0  0  0  0  0  0  0  0
   12.5540   -1.9929    2.9535 H   0  0  0  0  0  0  0  0  0  0  0  0
   12.5564   -2.1674    4.9062 H   0  0  0  0  0  0  0  0  0  0  0  0
   12.3803   -4.0793    6.3310 H   0  0  0  0  0  0  0  0  0  0  0  0
   10.2446   -4.6852    7.3454 H   0  0  0  0  0  0  0  0  0  0  0  0
    8.1251   -3.5717    6.8366 H   0  0  0  0  0  0  0  0  0  0  0  0
    7.1080   -2.1057    5.4822 H   0  0  0  0  0  0  0  0  0  0  0  0
    6.6908   -0.9562    3.2782 H   0  0  0  0  0  0  0  0  0  0  0  0
  1  2  1  0  0  0  0
  1 28  2  0  0  0  0
  1 29  1  0  0  0  0
  2  3  2  0  0  0  0
  2 30  1  0  0  0  0
  3  4  1  0  0  0  0
  3 31  1  0  0  0  0
  4  5  2  0  0  0  0
  4 32  1  0  0  0  0
  5  6  1  0  0  0  0
  5 33  1  0  0  0  0
  6  7  2  0  0  0  0
  6 34  1  0  0  0  0
  7  8  1  0  0  0  0
  7 35  1  0  0  0  0
  8  9  1  0  0  0  0
  8 10  2  0  0  0  0
  9 36  1  0  0  0  0
  9 37  1  0  0  0  0
  9 38  1  0  0  0  0
 10 11  1  0  0  0  0
 10 19  1  0  0  0  0
 11 12  1  0  0  0  0
 11 39  1  0  0  0  0
 11 40  1  0  0  0  0
 12 13  1  0  0  0  0
 12 41  1  0  0  0  0
 12 42  1  0  0  0  0
 13 14  1  0  0  0  0
 13 18  2  0  0  0  0
 14 15  2  0  0  0  0
 14 43  1  0  0  0  0
 15 16  1  0  0  0  0
 15 44  1  0  0  0  0
 16 17  2  0  0  0  0
 16 45  1  0  0  0  0
 17 18  1  0  0  0  0
 17 46  1  0  0  0  0
 18 47  1  0  0  0  0
 19 20  1  0  0  0  0
 19 21  2  0  0  0  0
 20 48  1  0  0  0  0
 20 49  1  0  0  0  0
 20 50  1  0  0  0  0
 21 22  1  0  0  0  0
 21 26  1  0  0  0  0
 22 23  2  0  0  0  0
 22 51  1  0  0  0  0
 23 24  1  0  0  0  0
 23 52  1  0  0  0  0
 24 25  2  0  0  0  0
 24 53  1  0  0  0  0
 25 26  1  0  0  0  0
 25 54  1  0  0  0  0
 26 27  2  0  0  0  0
 27 28  1  0  0  0  0
 27 55  1  0  0  0  0
 28 56  1  0  0  0  0
M  END
$$$$
