
 OpenBabel04232217013D

110110  0  0  1  0  0  0  0  0999 V2000
    1.0244   -0.0561   -0.4383 O   0  0  0  0  0  0  0  0  0  0  0  0
    2.4322   -0.0299   -0.1647 N   0  0  0  0  0  0  0  0  0  0  0  0
    3.1041   -0.8084   -1.2003 C   0  0  0  0  0  0  0  0  0  0  0  0
    3.0936    0.7076   -1.2371 C   0  0  3  0  0  0  0  0  0  0  0  0
    4.3384    1.4539   -0.9005 C   0  0  0  0  0  0  0  0  0  0  0  0
    4.0869    2.9537   -0.9105 C   0  0  0  0  0  0  0  0  0  0  0  0
    5.3530    3.7150   -0.5552 C   0  0  0  0  0  0  0  0  0  0  0  0
    5.0718    5.1939   -0.6512 C   0  0  0  0  0  0  0  0  0  0  0  0
    6.2568    5.9040   -0.3284 O   0  0  0  0  0  0  0  0  0  0  0  0
    6.0062    7.2970   -0.3888 C   0  0  0  0  0  0  0  0  0  0  0  0
    7.2746    8.0140   -0.0238 C   0  0  0  0  0  0  0  0  0  0  0  0
    7.0285    9.4884   -0.0942 C   0  0  0  0  0  0  0  0  0  0  0  0
    8.2880   10.2417    0.2633 C   0  0  0  0  0  0  0  0  0  0  0  0
    7.9644   11.7154    0.1821 C   0  0  0  0  0  0  0  0  0  0  0  0
    9.2074   12.4971    0.5478 C   0  0  0  0  0  0  0  0  0  0  0  0
    8.9131   13.9223    0.4444 C   0  0  0  0  0  0  0  0  0  0  0  0
   10.1984   14.6773    0.7901 C   0  0  0  0  0  0  0  0  0  0  0  0
    9.9279   16.1314    0.6721 C   0  0  0  0  0  0  0  0  0  0  0  0
   11.2034   16.6968    0.8315 O   0  0  0  0  0  0  0  0  0  0  0  0
   10.9917   18.1032    0.7484 O   0  0  0  0  0  0  0  0  0  0  0  0
   11.8748   18.7368    1.6754 O   0  0  0  0  0  0  0  0  0  0  0  0
   11.7201   20.1497    1.5903 O   0  0  0  0  0  0  0  0  0  0  0  0
   12.9653   20.7447    1.2049 O   0  0  0  0  0  0  0  0  0  0  0  0
   12.8131   22.1672    1.1705 O   0  0  0  0  0  0  0  0  0  0  0  0
   13.6159   22.7736    2.1956 O   0  0  0  0  0  0  0  0  0  0  0  0
   13.4870   24.2001    2.1113 O   0  0  0  0  0  0  0  0  0  0  0  0
   14.7099   24.7833    1.6265 O   0  0  0  0  0  0  0  0  0  0  0  0
   14.5936   26.2154    1.6522 O   0  0  0  0  0  0  0  0  0  0  0  0
   15.3199   26.7557    2.7733 O   0  0  0  0  0  0  0  0  0  0  0  0
   15.3005   28.1922    2.7061 O   0  0  0  0  0  0  0  0  0  0  0  0
   16.4818   28.6716    2.0320 O   0  0  0  0  0  0  0  0  0  0  0  0
   16.5015   30.1089    2.0573 O   0  0  0  0  0  0  0  0  0  0  0  0
   17.1106   30.5576    3.2831 O   0  0  0  0  0  0  0  0  0  0  0  0
   17.0399   31.9846    3.3727 O   0  0  0  0  0  0  0  0  0  0  0  0
   18.2048   32.5643    2.7615 O   0  0  0  0  0  0  0  0  0  0  0  0
   17.9498   33.9358    2.5045 O   0  0  0  0  0  0  0  0  0  0  0  0
   18.6149   34.7698    3.4859 O   0  0  0  0  0  0  0  0  0  0  0  0
   18.7035   36.0729    2.9062 O   0  0  0  0  0  0  0  0  0  0  0  0
   19.9351   36.7073    3.2441 O   0  0  0  0  0  0  0  0  0  0  0  0
   19.6248   37.8350    4.0785 O   0  0  0  0  0  0  0  0  0  0  0  0
   20.7716   38.6718    4.2115 O   0  0  0  0  0  0  0  0  0  0  0  0
   20.6854   39.7493    3.2709 O   0  0  0  0  0  0  0  0  0  0  0  0
   21.7585   40.6610    3.5000 O   0  0  0  0  0  0  0  0  0  0  0  0
   21.2680   41.7868    4.2346 O   0  0  0  0  0  0  0  0  0  0  0  0
   22.3728   42.5272    4.7317 O   0  0  0  0  0  0  0  0  0  0  0  0
   22.5532   43.7189    3.9669 O   0  0  0  0  0  0  0  0  0  0  0  0
   23.6793   44.3817    4.5182 O   0  0  0  0  0  0  0  0  0  0  0  0
   23.3453   45.6869    4.9595 O   0  0  0  0  0  0  0  0  0  0  0  0
   24.4197   46.5307    4.5557 O   0  0  0  0  0  0  0  0  0  0  0  0
   23.9399   47.8468    4.3779 O   0  0  0  0  0  0  0  0  0  0  0  0
   24.6851   48.7355    5.2045 O   0  0  0  0  0  0  0  0  0  0  0  0
   24.8964   49.9327    4.4567 O   0  0  0  0  0  0  0  0  0  0  0  0
   26.0764   50.5878    4.9081 O   0  0  0  0  0  0  0  0  0  0  0  0
   25.7019   51.6154    5.8380 O   0  0  0  0  0  0  0  0  0  0  0  0
   26.8001   52.5117    6.0201 O   0  0  0  0  0  0  0  0  0  0  0  0
   26.8176   53.4747    4.9521 O   0  0  0  0  0  0  0  0  0  0  0  0
   27.9007   54.3883    5.1517 O   0  0  0  0  0  0  0  0  0  0  0  0
   27.4556   55.4798    5.9730 O   0  0  0  0  0  0  0  0  0  0  0  0
   28.5872   56.2322    6.4054 O   0  0  0  0  0  0  0  0  0  0  0  0
   28.7241   57.4187    5.6131 O   0  0  0  0  0  0  0  0  0  0  0  0
   29.6790   58.2621    6.2596 O   0  0  0  0  0  0  0  0  0  0  0  0
   29.1778   59.5926    6.3577 O   0  0  0  0  0  0  0  0  0  0  0  0
   30.2294   60.5019    6.0215 O   0  0  0  0  0  0  0  0  0  0  0  0
   30.0573   61.7111    6.7660 O   0  0  0  0  0  0  0  0  0  0  0  0
   31.3265   62.3356    6.9606 O   0  0  0  0  0  0  0  0  0  0  0  0
   31.4074   63.5210    6.1545 O   0  0  0  0  0  0  0  0  0  0  0  0
   32.4666   64.3465    6.6494 O   0  0  0  0  0  0  0  0  0  0  0  0
   31.9443   65.5644    7.2022 O   0  0  0  0  0  0  0  0  0  0  0  0
   33.0434   66.4156    7.5651 O   0  0  0  0  0  0  0  0  0  0  0  0
   32.9387   67.6837    6.8976 O   0  0  0  0  0  0  0  0  0  0  0  0
   34.0997   68.4805    7.1967 O   0  0  0  0  0  0  0  0  0  0  0  0
   33.6990   69.8118    7.5683 O   0  0  0  0  0  0  0  0  0  0  0  0
   34.8416   70.5686    8.0101 O   0  0  0  0  0  0  0  0  0  0  0  0
   34.8140   71.8881    7.4261 O   0  0  0  0  0  0  0  0  0  0  0  0
   36.0269   72.5950    7.7514 O   0  0  0  0  0  0  0  0  0  0  0  0
   35.7304   73.8552    8.3950 O   0  0  0  0  0  0  0  0  0  0  0  0
   36.9089   74.6961    8.3709 O   0  0  0  0  0  0  0  0  0  0  0  0
   36.5596   76.0743    8.1031 O   0  0  0  0  0  0  0  0  0  0  0  0
   36.2476   76.2651    6.7019 O   0  0  0  0  0  0  0  0  0  0  0  0
    0.6704   -0.2400    0.4511 H   0  0  0  0  0  0  0  0  0  0  0  0
    2.4975   -1.3259   -1.9105 H   0  0  0  0  0  0  0  0  0  0  0  0
    4.0080   -1.3012   -0.9006 H   0  0  0  0  0  0  0  0  0  0  0  0
    2.4818    1.1803   -2.0019 H   0  0  0  0  0  0  0  0  0  0  0  0
    5.1288    1.2108   -1.6193 H   0  0  0  0  0  0  0  0  0  0  0  0
    4.6992    1.1631    0.0936 H   0  0  0  0  0  0  0  0  0  0  0  0
    3.2872    3.2084   -0.2029 H   0  0  0  0  0  0  0  0  0  0  0  0
    3.7379    3.2660   -1.9025 H   0  0  0  0  0  0  0  0  0  0  0  0
    6.1787    3.4498   -1.2297 H   0  0  0  0  0  0  0  0  0  0  0  0
    5.6958    3.4659    0.4571 H   0  0  0  0  0  0  0  0  0  0  0  0
    4.2768    5.4682    0.0586 H   0  0  0  0  0  0  0  0  0  0  0  0
    4.7499    5.4609   -1.6640 H   0  0  0  0  0  0  0  0  0  0  0  0
    5.2064    7.5619    0.3146 H   0  0  0  0  0  0  0  0  0  0  0  0
    5.6918    7.5729   -1.4039 H   0  0  0  0  0  0  0  0  0  0  0  0
    8.0886    7.7190   -0.7027 H   0  0  0  0  0  0  0  0  0  0  0  0
    7.6036    7.7159    0.9851 H   0  0  0  0  0  0  0  0  0  0  0  0
    6.2241    9.7762    0.5958 H   0  0  0  0  0  0  0  0  0  0  0  0
    6.7279    9.7697   -1.1122 H   0  0  0  0  0  0  0  0  0  0  0  0
    9.0826    9.9716   -0.4409 H   0  0  0  0  0  0  0  0  0  0  0  0
    8.6244    9.9802    1.2662 H   0  0  0  0  0  0  0  0  0  0  0  0
    7.1524   11.9802    0.8675 H   0  0  0  0  0  0  0  0  0  0  0  0
    7.6420   11.9885   -0.8325 H   0  0  0  0  0  0  0  0  0  0  0  0
   10.0320   12.2046   -0.1328 H   0  0  0  0  0  0  0  0  0  0  0  0
    9.5298   12.2214    1.5679 H   0  0  0  0  0  0  0  0  0  0  0  0
    8.1221   14.2414    1.1518 H   0  0  0  0  0  0  0  0  0  0  0  0
    8.5830   14.1936   -0.5731 H   0  0  0  0  0  0  0  0  0  0  0  0
   10.9942   14.3722    0.1249 H   0  0  0  0  0  0  0  0  0  0  0  0
   10.5284   14.4323    1.7662 H   0  0  0  0  0  0  0  0  0  0  0  0
    9.2245   16.4729    1.4492 H   0  0  0  0  0  0  0  0  0  0  0  0
    9.5294   16.3964   -0.3096 H   0  0  0  0  0  0  0  0  0  0  0  0
   35.7785   77.1072    6.8276 H   0  0  0  0  0  0  0  0  0  0  0  0
  1  2  1  0  0  0  0
  1 80  1  0  0  0  0
  2  3  1  0  0  0  0
  2  4  1  0  0  0  0
  3  4  1  0  0  0  0
  3 81  1  0  0  0  0
  3 82  1  0  0  0  0
  4  5  1  0  0  0  0
  4 83  1  0  0  0  0
  5  6  1  0  0  0  0
  5 84  1  0  0  0  0
  5 85  1  0  0  0  0
  6  7  1  0  0  0  0
  6 86  1  0  0  0  0
  6 87  1  0  0  0  0
  7  8  1  0  0  0  0
  7 88  1  0  0  0  0
  7 89  1  0  0  0  0
  8  9  1  0  0  0  0
  8 90  1  0  0  0  0
  8 91  1  0  0  0  0
  9 10  1  0  0  0  0
 10 11  1  0  0  0  0
 10 92  1  0  0  0  0
 10 93  1  0  0  0  0
 11 12  1  0  0  0  0
 11 94  1  0  0  0  0
 11 95  1  0  0  0  0
 12 13  1  0  0  0  0
 12 96  1  0  0  0  0
 12 97  1  0  0  0  0
 13 14  1  0  0  0  0
 13 98  1  0  0  0  0
 13 99  1  0  0  0  0
 14 15  1  0  0  0  0
 14100  1  0  0  0  0
 14101  1  0  0  0  0
 15 16  1  0  0  0  0
 15102  1  0  0  0  0
 15103  1  0  0  0  0
 16 17  1  0  0  0  0
 16104  1  0  0  0  0
 16105  1  0  0  0  0
 17 18  1  0  0  0  0
 17106  1  0  0  0  0
 17107  1  0  0  0  0
 18 19  1  0  0  0  0
 18108  1  0  0  0  0
 18109  1  0  0  0  0
 19 20  1  0  0  0  0
 20 21  1  0  0  0  0
 21 22  1  0  0  0  0
 22 23  1  0  0  0  0
 23 24  1  0  0  0  0
 24 25  1  0  0  0  0
 25 26  1  0  0  0  0
 26 27  1  0  0  0  0
 27 28  1  0  0  0  0
 28 29  1  0  0  0  0
 29 30  1  0  0  0  0
 30 31  1  0  0  0  0
 31 32  1  0  0  0  0
 32 33  1  0  0  0  0
 33 34  1  0  0  0  0
 34 35  1  0  0  0  0
 35 36  1  0  0  0  0
 36 37  1  0  0  0  0
 37 38  1  0  0  0  0
 38 39  1  0  0  0  0
 39 40  1  0  0  0  0
 40 41  1  0  0  0  0
 41 42  1  0  0  0  0
 42 43  1  0  0  0  0
 43 44  1  0  0  0  0
 44 45  1  0  0  0  0
 45 46  1  0  0  0  0
 46 47  1  0  0  0  0
 47 48  1  0  0  0  0
 48 49  1  0  0  0  0
 49 50  1  0  0  0  0
 50 51  1  0  0  0  0
 51 52  1  0  0  0  0
 52 53  1  0  0  0  0
 53 54  1  0  0  0  0
 54 55  1  0  0  0  0
 55 56  1  0  0  0  0
 56 57  1  0  0  0  0
 57 58  1  0  0  0  0
 58 59  1  0  0  0  0
 59 60  1  0  0  0  0
 60 61  1  0  0  0  0
 61 62  1  0  0  0  0
 62 63  1  0  0  0  0
 63 64  1  0  0  0  0
 64 65  1  0  0  0  0
 65 66  1  0  0  0  0
 66 67  1  0  0  0  0
 67 68  1  0  0  0  0
 68 69  1  0  0  0  0
 69 70  1  0  0  0  0
 70 71  1  0  0  0  0
 71 72  1  0  0  0  0
 72 73  1  0  0  0  0
 73 74  1  0  0  0  0
 74 75  1  0  0  0  0
 75 76  1  0  0  0  0
 76 77  1  0  0  0  0
 77 78  1  0  0  0  0
 78 79  1  0  0  0  0
 79110  1  0  0  0  0
M  END
$$$$
