
 OpenBabel04232216503D

 73 73  0  0  1  0  0  0  0  0999 V2000
    7.5966    2.0929   -1.9540 C   0  0  0  0  0  0  0  0  0  0  0  0
    8.3417    3.1552   -0.8003 C   0  0  3  0  0  0  0  0  0  0  0  0
    6.5667    3.4317   -0.3472 C   0  0  0  0  0  0  0  0  0  0  0  0
    5.7875    2.3996    0.7503 C   0  0  0  0  0  0  0  0  0  0  0  0
    5.3661    3.2105    1.9593 C   0  0  0  0  0  0  0  0  0  0  0  0
    6.6977    3.7073    2.3899 C   0  0  0  0  0  0  0  0  0  0  0  0
    6.7673    5.0984    1.8546 C   0  0  0  0  0  0  0  0  0  0  0  0
    8.1401    5.2094    1.3271 C   0  0  0  0  0  0  0  0  0  0  0  0
    8.5707    6.4690    1.9086 C   0  0  0  0  0  0  0  0  0  0  0  0
   10.0174    6.3577    1.7784 C   0  0  0  0  0  0  0  0  0  0  0  0
   10.2885    7.7764    1.9520 C   0  0  0  0  0  0  0  0  0  0  0  0
   11.7687    7.7326    1.8216 C   0  0  0  0  0  0  0  0  0  0  0  0
   12.2546    8.9757    2.4685 C   0  0  0  0  0  0  0  0  0  0  0  0
   13.6459    8.6714    2.9903 C   0  0  0  0  0  0  0  0  0  0  0  0
   13.9872    7.8804    3.8696 O   0  0  0  0  0  0  0  0  0  0  0  0
   14.5812    9.3179    2.0382 C   0  0  0  0  0  0  0  0  0  0  0  0
   14.6521    8.3601    1.0737 C   0  0  0  0  0  0  0  0  0  0  0  0
   13.6774    7.5860   -0.0614 C   0  0  0  0  0  0  0  0  0  0  0  0
   13.5577    6.1500   -0.2944 C   0  0  0  0  0  0  0  0  0  0  0  0
   15.3726    5.9116    0.1482 C   0  0  0  0  0  0  0  0  0  0  0  0
   16.7711    7.1940    0.1044 C   0  0  0  0  0  0  0  0  0  0  0  0
   18.3103    6.9261   -0.2010 C   0  0  0  0  0  0  0  0  0  0  0  0
   18.2700    6.6859   -1.6607 C   0  0  0  0  0  0  0  0  0  0  0  0
   19.2395    5.8302   -2.4082 C   0  0  0  0  0  0  0  0  0  0  0  0
   18.4007    5.4823   -3.6510 C   0  0  0  0  0  0  0  0  0  0  0  0
   11.8405    5.0922   -0.3905 C   0  0  0  0  0  0  0  0  0  0  0  0
   10.2114    3.9780   -0.9588 C   0  0  0  0  0  0  0  0  0  0  0  0
    6.7217    1.5810   -1.4439 H   0  0  0  0  0  0  0  0  0  0  0  0
    8.0506    1.1459   -2.2251 H   0  0  0  0  0  0  0  0  0  0  0  0
    7.0073    2.6103   -2.7443 H   0  0  0  0  0  0  0  0  0  0  0  0
    8.5990    2.4050   -0.0441 H   0  0  0  0  0  0  0  0  0  0  0  0
    5.8492    3.1329   -1.1507 H   0  0  0  0  0  0  0  0  0  0  0  0
    6.2127    4.4553   -0.4666 H   0  0  0  0  0  0  0  0  0  0  0  0
    6.4480    1.5700    1.0453 H   0  0  0  0  0  0  0  0  0  0  0  0
    4.8693    1.9035    0.3884 H   0  0  0  0  0  0  0  0  0  0  0  0
    4.8529    2.7236    2.7942 H   0  0  0  0  0  0  0  0  0  0  0  0
    4.6920    4.0099    1.6217 H   0  0  0  0  0  0  0  0  0  0  0  0
    7.4957    3.0584    1.9679 H   0  0  0  0  0  0  0  0  0  0  0  0
    6.8663    3.6806    3.4582 H   0  0  0  0  0  0  0  0  0  0  0  0
    6.4724    5.7961    2.6348 H   0  0  0  0  0  0  0  0  0  0  0  0
    6.1045    5.3933    1.0393 H   0  0  0  0  0  0  0  0  0  0  0  0
    8.1407    5.3265    0.2398 H   0  0  0  0  0  0  0  0  0  0  0  0
    8.8222    4.3777    1.5772 H   0  0  0  0  0  0  0  0  0  0  0  0
    8.2869    6.6440    2.9507 H   0  0  0  0  0  0  0  0  0  0  0  0
    8.1479    7.2661    1.2831 H   0  0  0  0  0  0  0  0  0  0  0  0
   10.2119    6.0502    0.7648 H   0  0  0  0  0  0  0  0  0  0  0  0
   10.4700    5.6243    2.4597 H   0  0  0  0  0  0  0  0  0  0  0  0
   10.0327    8.1032    2.9591 H   0  0  0  0  0  0  0  0  0  0  0  0
    9.9178    8.3787    1.1915 H   0  0  0  0  0  0  0  0  0  0  0  0
   11.8087    7.8261    0.7228 H   0  0  0  0  0  0  0  0  0  0  0  0
   12.2939    6.8185    2.1159 H   0  0  0  0  0  0  0  0  0  0  0  0
   11.6372    9.3794    3.2536 H   0  0  0  0  0  0  0  0  0  0  0  0
   12.2955    9.7163    1.6468 H   0  0  0  0  0  0  0  0  0  0  0  0
   14.2425   10.3527    1.9950 H   0  0  0  0  0  0  0  0  0  0  0  0
   15.2286    7.6241    1.6245 H   0  0  0  0  0  0  0  0  0  0  0  0
   14.2546    8.0545   -0.8893 H   0  0  0  0  0  0  0  0  0  0  0  0
   15.7947    4.9961   -0.2500 H   0  0  0  0  0  0  0  0  0  0  0  0
   15.3223    5.7832    1.2427 H   0  0  0  0  0  0  0  0  0  0  0  0
   16.4901    7.9978   -0.6059 H   0  0  0  0  0  0  0  0  0  0  0  0
   16.9296    7.7079    1.0710 H   0  0  0  0  0  0  0  0  0  0  0  0
   18.7726    6.1610    0.4289 H   0  0  0  0  0  0  0  0  0  0  0  0
   18.9420    7.8350   -0.0423 H   0  0  0  0  0  0  0  0  0  0  0  0
   18.1941    7.6566   -2.1764 H   0  0  0  0  0  0  0  0  0  0  0  0
   17.3165    6.1782   -1.7766 H   0  0  0  0  0  0  0  0  0  0  0  0
   19.5262    4.9151   -1.8781 H   0  0  0  0  0  0  0  0  0  0  0  0
   20.1445    6.3748   -2.7120 H   0  0  0  0  0  0  0  0  0  0  0  0
   17.4799    4.9707   -3.3576 H   0  0  0  0  0  0  0  0  0  0  0  0
   18.9197    4.8709   -4.3746 H   0  0  0  0  0  0  0  0  0  0  0  0
   18.1000    6.4045   -4.1561 H   0  0  0  0  0  0  0  0  0  0  0  0
   11.3457    6.0105   -0.6923 H   0  0  0  0  0  0  0  0  0  0  0  0
   11.8509    4.8062    0.6700 H   0  0  0  0  0  0  0  0  0  0  0  0
   10.5334    3.2128   -0.2674 H   0  0  0  0  0  0  0  0  0  0  0  0
   10.4785    3.6573   -1.9644 H   0  0  0  0  0  0  0  0  0  0  0  0
  1  2  1  0  0  0  0
  1 28  1  0  0  0  0
  1 29  1  0  0  0  0
  1 30  1  0  0  0  0
  2  3  1  0  0  0  0
  2 27  1  0  0  0  0
  2 31  1  0  0  0  0
  3  4  1  0  0  0  0
  3 32  1  0  0  0  0
  3 33  1  0  0  0  0
  4  5  1  0  0  0  0
  4 34  1  0  0  0  0
  4 35  1  0  0  0  0
  5  6  1  0  0  0  0
  5 36  1  0  0  0  0
  5 37  1  0  0  0  0
  6  7  1  0  0  0  0
  6 38  1  0  0  0  0
  6 39  1  0  0  0  0
  7  8  1  0  0  0  0
  7 40  1  0  0  0  0
  7 41  1  0  0  0  0
  8  9  1  0  0  0  0
  8 42  1  0  0  0  0
  8 43  1  0  0  0  0
  9 10  1  0  0  0  0
  9 44  1  0  0  0  0
  9 45  1  0  0  0  0
 10 11  1  0  0  0  0
 10 46  1  0  0  0  0
 10 47  1  0  0  0  0
 11 12  1  0  0  0  0
 11 48  1  0  0  0  0
 11 49  1  0  0  0  0
 12 13  1  0  0  0  0
 12 50  1  0  0  0  0
 12 51  1  0  0  0  0
 13 14  1  0  0  0  0
 13 52  1  0  0  0  0
 13 53  1  0  0  0  0
 14 15  2  0  0  0  0
 14 16  1  0  0  0  0
 16 17  2  3  0  0  0
 16 54  1  0  0  0  0
 17 18  1  0  0  0  0
 17 55  1  0  0  0  0
 18 19  2  3  0  0  0
 18 56  1  0  0  0  0
 19 20  1  0  0  0  0
 19 26  1  0  0  0  0
 20 21  1  0  0  0  0
 20 57  1  0  0  0  0
 20 58  1  0  0  0  0
 21 22  1  0  0  0  0
 21 59  1  0  0  0  0
 21 60  1  0  0  0  0
 22 23  1  0  0  0  0
 22 61  1  0  0  0  0
 22 62  1  0  0  0  0
 23 24  1  0  0  0  0
 23 63  1  0  0  0  0
 23 64  1  0  0  0  0
 24 25  1  0  0  0  0
 24 65  1  0  0  0  0
 24 66  1  0  0  0  0
 25 67  1  0  0  0  0
 25 68  1  0  0  0  0
 25 69  1  0  0  0  0
 26 27  1  0  0  0  0
 26 70  1  0  0  0  0
 26 71  1  0  0  0  0
 27 72  1  0  0  0  0
 27 73  1  0  0  0  0
M  END
$$$$
