
 OpenBabel04232216503D

 49 49  0  0  0  0  0  0  0  0999 V2000
    7.7186    2.0713    4.3220 C   0  0  0  0  0  0  0  0  0  0  0  0
    9.0794    1.1220    4.2821 C   0  0  0  0  0  0  0  0  0  0  0  0
    8.4158    0.3860    2.9224 C   0  0  0  0  0  0  0  0  0  0  0  0
    7.4695   -0.3189    2.1695 C   0  0  0  0  0  0  0  0  0  0  0  0
    6.4382   -1.3257    2.6236 C   0  0  0  0  0  0  0  0  0  0  0  0
    6.9115   -2.4719    3.0897 C   0  0  0  0  0  0  0  0  0  0  0  0
    7.3544   -2.3870    4.5650 C   0  0  0  0  0  0  0  0  0  0  0  0
    8.8442   -2.2953    4.4349 C   0  0  0  0  0  0  0  0  0  0  0  0
    9.6435   -2.1985    5.6539 C   0  0  0  0  0  0  0  0  0  0  0  0
   10.8991   -2.3076    5.2689 C   0  0  0  0  0  0  0  0  0  0  0  0
   12.0766   -2.2855    6.0047 C   0  0  0  0  0  0  0  0  0  0  0  0
   13.2019   -2.2910    5.2729 C   0  0  0  0  0  0  0  0  0  0  0  0
   14.4701   -2.4461    5.8298 C   0  0  0  0  0  0  0  0  0  0  0  0
   15.5853   -2.6611    6.4528 C   0  0  0  0  0  0  0  0  0  0  0  0
   15.5078   -3.2362    7.8571 C   0  0  0  0  0  0  0  0  0  0  0  0
   16.7105   -3.3385    8.4325 C   0  0  0  0  0  0  0  0  0  0  0  0
   16.9262   -2.2714    9.4123 C   0  0  0  0  0  0  0  0  0  0  0  0
   16.7112   -1.0892    8.8278 C   0  0  0  0  0  0  0  0  0  0  0  0
   15.3854   -0.0920    8.9003 C   0  0  0  0  0  0  0  0  0  0  0  0
   14.2753    0.3556    8.0850 C   0  0  0  0  0  0  0  0  0  0  0  0
   13.1050    0.5062    6.7384 C   0  0  0  0  0  0  0  0  0  0  0  0
   11.7135    0.9327    6.2227 C   0  0  0  0  0  0  0  0  0  0  0  0
   10.3954    0.7967    4.9258 C   0  0  0  0  0  0  0  0  0  0  0  0
    7.2487    2.3319    5.2665 H   0  0  0  0  0  0  0  0  0  0  0  0
    6.8215    1.5683    3.8475 H   0  0  0  0  0  0  0  0  0  0  0  0
    7.7945    2.9007    3.5932 H   0  0  0  0  0  0  0  0  0  0  0  0
    7.9003   -0.0748    3.7915 H   0  0  0  0  0  0  0  0  0  0  0  0
    7.4041   -0.2490    1.0724 H   0  0  0  0  0  0  0  0  0  0  0  0
    5.4767   -0.9882    3.0396 H   0  0  0  0  0  0  0  0  0  0  0  0
    7.7233   -2.9248    2.4942 H   0  0  0  0  0  0  0  0  0  0  0  0
    7.0779   -3.2407    5.1772 H   0  0  0  0  0  0  0  0  0  0  0  0
    6.9509   -1.4828    5.0455 H   0  0  0  0  0  0  0  0  0  0  0  0
    9.1716   -1.4673    3.8123 H   0  0  0  0  0  0  0  0  0  0  0  0
    9.2099   -3.1455    3.8434 H   0  0  0  0  0  0  0  0  0  0  0  0
    9.2878   -1.9760    6.6453 H   0  0  0  0  0  0  0  0  0  0  0  0
   11.0983   -2.3397    4.1762 H   0  0  0  0  0  0  0  0  0  0  0  0
   12.0039   -2.3173    7.0954 H   0  0  0  0  0  0  0  0  0  0  0  0
   13.1798   -2.1294    4.2058 H   0  0  0  0  0  0  0  0  0  0  0  0
   13.9223   -3.0020    6.5654 H   0  0  0  0  0  0  0  0  0  0  0  0
   16.5112   -2.2293    6.1304 H   0  0  0  0  0  0  0  0  0  0  0  0
   14.6764   -2.7950    8.4477 H   0  0  0  0  0  0  0  0  0  0  0  0
   17.5273   -3.6712    7.7862 H   0  0  0  0  0  0  0  0  0  0  0  0
   16.4810   -2.6111   10.3003 H   0  0  0  0  0  0  0  0  0  0  0  0
   17.6691   -0.4699    8.8641 H   0  0  0  0  0  0  0  0  0  0  0  0
   15.4857    0.3007    9.9262 H   0  0  0  0  0  0  0  0  0  0  0  0
   15.0025    0.2302    7.2353 H   0  0  0  0  0  0  0  0  0  0  0  0
   13.7509    0.1229    5.9348 H   0  0  0  0  0  0  0  0  0  0  0  0
   12.2229    0.8651    5.2255 H   0  0  0  0  0  0  0  0  0  0  0  0
   10.8749    0.0800    4.2468 H   0  0  0  0  0  0  0  0  0  0  0  0
  1  2  1  0  0  0  0
  1 24  1  0  0  0  0
  1 25  1  0  0  0  0
  1 26  1  0  0  0  0
  2  3  1  0  0  0  0
  2 23  2  3  0  0  0
  3  4  2  3  0  0  0
  3 27  1  0  0  0  0
  4  5  1  0  0  0  0
  4 28  1  0  0  0  0
  5  6  2  3  0  0  0
  5 29  1  0  0  0  0
  6  7  1  0  0  0  0
  6 30  1  0  0  0  0
  7  8  1  0  0  0  0
  7 31  1  0  0  0  0
  7 32  1  0  0  0  0
  8  9  1  0  0  0  0
  8 33  1  0  0  0  0
  8 34  1  0  0  0  0
  9 10  2  3  0  0  0
  9 35  1  0  0  0  0
 10 11  1  0  0  0  0
 10 36  1  0  0  0  0
 11 12  2  3  0  0  0
 11 37  1  0  0  0  0
 12 13  1  0  0  0  0
 12 38  1  0  0  0  0
 13 14  2  3  0  0  0
 13 39  1  0  0  0  0
 14 15  1  0  0  0  0
 14 40  1  0  0  0  0
 15 16  2  3  0  0  0
 15 41  1  0  0  0  0
 16 17  1  0  0  0  0
 16 42  1  0  0  0  0
 17 18  2  3  0  0  0
 17 43  1  0  0  0  0
 18 19  1  0  0  0  0
 18 44  1  0  0  0  0
 19 20  2  3  0  0  0
 19 45  1  0  0  0  0
 20 21  1  0  0  0  0
 20 46  1  0  0  0  0
 21 22  2  3  0  0  0
 21 47  1  0  0  0  0
 22 23  1  0  0  0  0
 22 48  1  0  0  0  0
 23 49  1  0  0  0  0
M  END
$$$$
