
 OpenBabel04232216473D

 51 52  0  0  0  0  0  0  0  0999 V2000
    4.9920    0.3295   -1.5674 C   0  0  0  0  0  0  0  0  0  0  0  0
    5.9936   -0.8055   -1.5010 C   0  0  0  0  0  0  0  0  0  0  0  0
    5.4524   -1.9579   -0.7281 C   0  0  0  0  0  0  0  0  0  0  0  0
    5.5696   -3.1428   -1.2678 C   0  0  0  0  0  0  0  0  0  0  0  0
    4.6960   -4.1679   -1.5442 N   0  0  0  0  0  0  0  0  0  0  0  0
    3.2737   -3.8932   -1.5580 C   0  0  0  0  0  0  0  0  0  0  0  0
    2.7377   -4.4969   -2.8524 C   0  0  0  0  0  0  0  0  0  0  0  0
    1.2457   -4.2667   -3.0277 C   0  0  0  0  0  0  0  0  0  0  0  0
    0.7800   -4.9652   -4.2991 C   0  0  0  0  0  0  0  0  0  0  0  0
   -0.7183   -4.7999   -4.4913 C   0  0  0  0  0  0  0  0  0  0  0  0
   -1.1738   -5.5264   -5.7514 C   0  0  0  0  0  0  0  0  0  0  0  0
   -2.6671   -5.3650   -5.9526 C   0  0  0  0  0  0  0  0  0  0  0  0
    5.4109   -4.2455   -0.4178 N   0  0  0  0  0  0  0  0  0  0  0  0
    6.4735   -5.1021   -0.4124 N   0  0  0  0  0  0  0  0  0  0  0  0
    7.3223   -4.6575    0.3966 N   0  0  0  0  0  0  0  0  0  0  0  0
    8.4771   -4.1522   -0.1621 C   0  0  0  0  0  0  0  0  0  0  0  0
    9.1572   -4.5518   -1.2532 C   0  0  0  0  0  0  0  0  0  0  0  0
    8.8866   -5.7355   -2.1246 C   0  0  0  0  0  0  0  0  0  0  0  0
   10.0359   -3.4033   -1.6595 C   0  0  0  0  0  0  0  0  0  0  0  0
   11.4251   -3.3131   -1.0635 C   0  0  0  0  0  0  0  0  0  0  0  0
    9.6197   -2.3662   -2.3408 N   0  0  0  0  0  0  0  0  0  0  0  0
    8.4502   -2.5947   -3.0436 N   0  0  0  0  0  0  0  0  0  0  0  0
    7.4209   -1.8046   -2.9580 C   0  0  0  0  0  0  0  0  0  0  0  0
    7.1025   -0.7175   -2.1744 N   0  0  0  0  0  0  0  0  0  0  0  0
    4.0301   -0.1027   -1.8860 H   0  0  0  0  0  0  0  0  0  0  0  0
    5.2776    1.0660   -2.3189 H   0  0  0  0  0  0  0  0  0  0  0  0
    4.8407    0.7910   -0.5909 H   0  0  0  0  0  0  0  0  0  0  0  0
    4.7946   -1.7565    0.1111 H   0  0  0  0  0  0  0  0  0  0  0  0
    3.0511   -2.8198   -1.5687 H   0  0  0  0  0  0  0  0  0  0  0  0
    2.7563   -4.3243   -0.6839 H   0  0  0  0  0  0  0  0  0  0  0  0
    2.9543   -5.5709   -2.8665 H   0  0  0  0  0  0  0  0  0  0  0  0
    3.2712   -4.0577   -3.7069 H   0  0  0  0  0  0  0  0  0  0  0  0
    1.0318   -3.1922   -3.0919 H   0  0  0  0  0  0  0  0  0  0  0  0
    0.7009   -4.6583   -2.1612 H   0  0  0  0  0  0  0  0  0  0  0  0
    1.0304   -6.0324   -4.2453 H   0  0  0  0  0  0  0  0  0  0  0  0
    1.3142   -4.5536   -5.1649 H   0  0  0  0  0  0  0  0  0  0  0  0
   -0.9657   -3.7338   -4.5634 H   0  0  0  0  0  0  0  0  0  0  0  0
   -1.2491   -5.1986   -3.6182 H   0  0  0  0  0  0  0  0  0  0  0  0
   -0.9262   -6.5921   -5.6774 H   0  0  0  0  0  0  0  0  0  0  0  0
   -0.6406   -5.1294   -6.6232 H   0  0  0  0  0  0  0  0  0  0  0  0
   -3.2204   -5.7805   -5.1045 H   0  0  0  0  0  0  0  0  0  0  0  0
   -2.9847   -5.8869   -6.8600 H   0  0  0  0  0  0  0  0  0  0  0  0
   -2.9327   -4.3080   -6.0521 H   0  0  0  0  0  0  0  0  0  0  0  0
    8.8012   -3.2349    0.3314 H   0  0  0  0  0  0  0  0  0  0  0  0
    7.8147   -5.8657   -2.3126 H   0  0  0  0  0  0  0  0  0  0  0  0
    9.2410   -6.6647   -1.6563 H   0  0  0  0  0  0  0  0  0  0  0  0
    9.3609   -5.6590   -3.1066 H   0  0  0  0  0  0  0  0  0  0  0  0
   11.4768   -2.4002   -0.4602 H   0  0  0  0  0  0  0  0  0  0  0  0
   12.1702   -3.2372   -1.8623 H   0  0  0  0  0  0  0  0  0  0  0  0
   11.6703   -4.1676   -0.4274 H   0  0  0  0  0  0  0  0  0  0  0  0
    6.6317   -2.0379   -3.6942 H   0  0  0  0  0  0  0  0  0  0  0  0
  1  2  1  0  0  0  0
  1 25  1  0  0  0  0
  1 26  1  0  0  0  0
  1 27  1  0  0  0  0
  2  3  1  0  0  0  0
  2 24  2  0  0  0  0
  3  4  2  0  0  0  0
  3 28  1  0  0  0  0
  4  5  1  0  0  0  0
  4 13  1  0  0  0  0
  5  6  1  0  0  0  0
  5 13  1  0  0  0  0
  6  7  1  0  0  0  0
  6 29  1  0  0  0  0
  6 30  1  0  0  0  0
  7  8  1  0  0  0  0
  7 31  1  0  0  0  0
  7 32  1  0  0  0  0
  8  9  1  0  0  0  0
  8 33  1  0  0  0  0
  8 34  1  0  0  0  0
  9 10  1  0  0  0  0
  9 35  1  0  0  0  0
  9 36  1  0  0  0  0
 10 11  1  0  0  0  0
 10 37  1  0  0  0  0
 10 38  1  0  0  0  0
 11 12  1  0  0  0  0
 11 39  1  0  0  0  0
 11 40  1  0  0  0  0
 12 41  1  0  0  0  0
 12 42  1  0  0  0  0
 12 43  1  0  0  0  0
 13 14  1  0  0  0  0
 14 15  2  0  0  0  0
 15 16  1  0  0  0  0
 16 17  2  0  0  0  0
 16 44  1  0  0  0  0
 17 18  1  0  0  0  0
 17 19  1  0  0  0  0
 18 45  1  0  0  0  0
 18 46  1  0  0  0  0
 18 47  1  0  0  0  0
 19 20  1  0  0  0  0
 19 21  2  0  0  0  0
 20 48  1  0  0  0  0
 20 49  1  0  0  0  0
 20 50  1  0  0  0  0
 21 22  1  0  0  0  0
 22 23  2  0  0  0  0
 23 24  1  0  0  0  0
 23 51  1  0  0  0  0
M  END
$$$$
