
 OpenBabel04232216433D

 66 68  0  0  0  0  0  0  0  0999 V2000
    4.4014   -1.5315    1.2834 C   0  0  0  0  0  0  0  0  0  0  0  0
    3.9103   -0.4407    0.3729 C   0  0  0  0  0  0  0  0  0  0  0  0
    3.6934   -0.5552   -0.9544 C   0  0  0  0  0  0  0  0  0  0  0  0
    4.9169   -0.6799   -1.7610 C   0  0  0  0  0  0  0  0  0  0  0  0
    6.0293    0.0623   -1.8303 C   0  0  0  0  0  0  0  0  0  0  0  0
    6.9177    1.2317   -1.9266 C   0  0  0  0  0  0  0  0  0  0  0  0
    8.2464    0.9856   -2.2323 C   0  0  0  0  0  0  0  0  0  0  0  0
    9.6621    1.9882   -2.2861 C   0  0  0  0  0  0  0  0  0  0  0  0
   10.0245    3.5375   -1.8583 C   0  0  0  0  0  0  0  0  0  0  0  0
   11.6165    4.0294   -1.6348 C   0  0  0  0  0  0  0  0  0  0  0  0
   12.4482    3.0504   -0.8240 C   0  0  0  0  0  0  0  0  0  0  0  0
   14.0063    2.7890   -0.7166 C   0  0  0  0  0  0  0  0  0  0  0  0
   13.9454    1.4158   -0.0273 C   0  0  0  0  0  0  0  0  0  0  0  0
   14.7678    0.1881    0.1641 C   0  0  0  0  0  0  0  0  0  0  0  0
   13.6196   -1.0272    0.4589 C   0  0  0  0  0  0  0  0  0  0  0  0
   14.1830   -2.3760    0.4281 C   0  0  0  0  0  0  0  0  0  0  0  0
   11.3026   -2.3760    0.4281 C   0  0  0  0  0  0  0  0  0  0  0  0
    9.7826   -2.3760    0.4281 C   0  0  0  0  0  0  0  0  0  0  0  0
   12.2029   -0.9708    0.8369 C   0  0  0  0  0  0  0  0  0  0  0  0
   11.4239    0.3412    1.3435 C   0  0  0  0  0  0  0  0  0  0  0  0
   10.1607    0.8034    1.2188 C   0  0  0  0  0  0  0  0  0  0  0  0
    9.6476    2.1869    1.5916 C   0  0  0  0  0  0  0  0  0  0  0  0
    9.1696    0.2253    0.3781 C   0  0  0  0  0  0  0  0  0  0  0  0
    9.5509   -0.2957   -0.7946 C   0  0  0  0  0  0  0  0  0  0  0  0
    8.6489   -0.4992   -1.8685 C   0  0  0  0  0  0  0  0  0  0  0  0
    7.9832   -1.6875   -2.1378 C   0  0  0  0  0  0  0  0  0  0  0  0
    7.6510   -2.9843   -1.3579 C   0  0  0  0  0  0  0  0  0  0  0  0
    7.0750   -3.3029   -0.1803 C   0  0  0  0  0  0  0  0  0  0  0  0
    6.8218   -2.4728    0.9968 C   0  0  0  0  0  0  0  0  0  0  0  0
    5.8890   -1.6534    1.4675 C   0  0  0  0  0  0  0  0  0  0  0  0
    4.0425   -1.2521    2.2900 H   0  0  0  0  0  0  0  0  0  0  0  0
    3.9443   -2.5125    1.1112 H   0  0  0  0  0  0  0  0  0  0  0  0
    3.5814    0.4838    0.8420 H   0  0  0  0  0  0  0  0  0  0  0  0
    3.2005   -1.5149   -1.2170 H   0  0  0  0  0  0  0  0  0  0  0  0
    5.1610   -1.7639   -1.7731 H   0  0  0  0  0  0  0  0  0  0  0  0
    6.5422   -0.4149   -0.9723 H   0  0  0  0  0  0  0  0  0  0  0  0
    6.5127    2.2181   -1.7545 H   0  0  0  0  0  0  0  0  0  0  0  0
   10.0755    1.8530   -3.2882 H   0  0  0  0  0  0  0  0  0  0  0  0
   10.4019    1.4854   -1.6536 H   0  0  0  0  0  0  0  0  0  0  0  0
    9.6367    4.2082   -2.6346 H   0  0  0  0  0  0  0  0  0  0  0  0
    9.5141    3.7968   -0.9272 H   0  0  0  0  0  0  0  0  0  0  0  0
   11.5970    4.9844   -1.0857 H   0  0  0  0  0  0  0  0  0  0  0  0
   12.0988    4.2357   -2.5936 H   0  0  0  0  0  0  0  0  0  0  0  0
   12.0936    2.1364   -1.2758 H   0  0  0  0  0  0  0  0  0  0  0  0
   12.0871    3.0948    0.2085 H   0  0  0  0  0  0  0  0  0  0  0  0
   14.5184    3.5087   -0.0589 H   0  0  0  0  0  0  0  0  0  0  0  0
   14.5298    2.7577   -1.6756 H   0  0  0  0  0  0  0  0  0  0  0  0
   13.1542    0.9283   -0.5988 H   0  0  0  0  0  0  0  0  0  0  0  0
   13.6627    1.6723    0.9923 H   0  0  0  0  0  0  0  0  0  0  0  0
   15.4536    0.1998    1.0220 H   0  0  0  0  0  0  0  0  0  0  0  0
   15.3628   -0.1497   -0.6998 H   0  0  0  0  0  0  0  0  0  0  0  0
   14.9884   -3.0697    0.2689 H   0  0  0  0  0  0  0  0  0  0  0  0
    9.5638   -3.3985    0.7782 H   0  0  0  0  0  0  0  0  0  0  0  0
    9.6091   -2.5011   -0.6168 H   0  0  0  0  0  0  0  0  0  0  0  0
    9.3006   -1.7458    1.1497 H   0  0  0  0  0  0  0  0  0  0  0  0
   12.1003    1.0633    1.7824 H   0  0  0  0  0  0  0  0  0  0  0  0
   10.4211    2.9015    1.8420 H   0  0  0  0  0  0  0  0  0  0  0  0
    8.8913    2.1476    2.3825 H   0  0  0  0  0  0  0  0  0  0  0  0
    9.1061    2.6391    0.7299 H   0  0  0  0  0  0  0  0  0  0  0  0
    8.1204    0.3305    0.6474 H   0  0  0  0  0  0  0  0  0  0  0  0
   10.5970   -0.3755   -1.0921 H   0  0  0  0  0  0  0  0  0  0  0  0
    7.4098   -1.7233   -3.0632 H   0  0  0  0  0  0  0  0  0  0  0  0
    8.0398   -3.8438   -1.9301 H   0  0  0  0  0  0  0  0  0  0  0  0
    7.1416   -4.3698    0.0760 H   0  0  0  0  0  0  0  0  0  0  0  0
    7.5572   -2.7310    1.7891 H   0  0  0  0  0  0  0  0  0  0  0  0
    6.2196   -1.0697    2.3309 H   0  0  0  0  0  0  0  0  0  0  0  0
  1  2  1  0  0  0  0
  1 30  1  0  0  0  0
  1 31  1  0  0  0  0
  1 32  1  0  0  0  0
  2  3  2  3  0  0  0
  2 33  1  0  0  0  0
  3  4  1  0  0  0  0
  3 34  1  0  0  0  0
  4  5  2  3  0  0  0
  4 35  1  0  0  0  0
  5  6  1  0  0  0  0
  5 36  1  0  0  0  0
  6  7  2  3  0  0  0
  6 37  1  0  0  0  0
  7  8  1  0  0  0  0
  7 25  1  0  0  0  0
  8  9  1  0  0  0  0
  8 38  1  0  0  0  0
  8 39  1  0  0  0  0
  9 10  1  0  0  0  0
  9 40  1  0  0  0  0
  9 41  1  0  0  0  0
 10 11  1  0  0  0  0
 10 42  1  0  0  0  0
 10 43  1  0  0  0  0
 11 12  1  0  0  0  0
 11 44  1  0  0  0  0
 11 45  1  0  0  0  0
 12 13  1  0  0  0  0
 12 46  1  0  0  0  0
 12 47  1  0  0  0  0
 13 14  1  0  0  0  0
 13 48  1  0  0  0  0
 13 49  1  0  0  0  0
 14 15  1  0  0  0  0
 14 50  1  0  0  0  0
 14 51  1  0  0  0  0
 15 16  1  0  0  0  0
 15 19  2  0  0  0  0
 16 17  2  0  0  0  0
 16 52  1  0  0  0  0
 17 18  1  0  0  0  0
 17 19  1  0  0  0  0
 18 53  1  0  0  0  0
 18 54  1  0  0  0  0
 18 55  1  0  0  0  0
 19 20  1  0  0  0  0
 20 21  2  3  0  0  0
 20 56  1  0  0  0  0
 21 22  1  0  0  0  0
 21 23  1  0  0  0  0
 22 57  1  0  0  0  0
 22 58  1  0  0  0  0
 22 59  1  0  0  0  0
 23 24  2  3  0  0  0
 23 60  1  0  0  0  0
 24 25  1  0  0  0  0
 24 61  1  0  0  0  0
 25 26  2  3  0  0  0
 26 27  1  0  0  0  0
 26 62  1  0  0  0  0
 27 28  2  3  0  0  0
 27 63  1  0  0  0  0
 28 29  1  0  0  0  0
 28 64  1  0  0  0  0
 29 30  2  3  0  0  0
 29 65  1  0  0  0  0
 30 66  1  0  0  0  0
M  END
$$$$
