
 OpenBabel04232216473D

211211  0  0  1  0  0  0  0  0999 V2000
   11.7418   23.5057   40.6782 C   0  0  0  0  0  0  0  0  0  0  0  0
   10.6950   22.6992   41.3757 C   0  0  3  0  0  0  0  0  0  0  0  0
   10.7920   21.3829   41.5925 C   0  0  0  0  0  0  0  0  0  0  0  0
   10.0402   21.4408   40.5183 C   0  0  0  0  0  0  0  0  0  0  0  0
    9.3254   22.1421   39.6124 O   0  0  0  0  0  0  0  0  0  0  0  0
    8.8280   21.2047   38.6218 O   0  0  0  0  0  0  0  0  0  0  0  0
    9.3518   21.5766   37.3146 O   0  0  0  0  0  0  0  0  0  0  0  0
    8.7515   20.7071   36.3556 C   0  0  0  0  0  0  0  0  0  0  0  0
    7.3271   20.7957   36.3152 O   0  0  0  0  0  0  0  0  0  0  0  0
    6.8905   22.1252   36.0097 C   0  0  0  0  0  0  0  0  0  0  0  0
    7.3222   22.5563   34.7192 O   0  0  0  0  0  0  0  0  0  0  0  0
    6.8605   23.8771   34.4333 C   0  0  0  0  0  0  0  0  0  0  0  0
    7.3401   24.3167   33.0531 C   0  0  0  0  0  0  0  0  0  0  0  0
    6.8146   23.3755   31.9707 C   0  0  0  0  0  0  0  0  0  0  0  0
    7.2713   23.7918   30.5794 C   0  0  0  0  0  0  0  0  0  0  0  0
    6.7321   22.8258   29.5422 C   0  0  0  0  0  0  0  0  0  0  0  0
    7.1915   23.2323   28.2602 O   0  0  0  0  0  0  0  0  0  0  0  0
    6.6692   22.3647   27.2526 C   0  0  0  0  0  0  0  0  0  0  0  0
    5.2430   22.3417   27.2319 O   0  0  0  0  0  0  0  0  0  0  0  0
    4.7405   23.6523   26.9918 C   0  0  0  0  0  0  0  0  0  0  0  0
    3.3221   23.6529   27.0143 O   0  0  0  0  0  0  0  0  0  0  0  0
    2.8518   24.9617   26.7486 C   0  0  0  0  0  0  0  0  0  0  0  0
    3.3123   25.3970   25.4819 O   0  0  0  0  0  0  0  0  0  0  0  0
    2.8411   26.7070   25.2177 C   0  0  0  0  0  0  0  0  0  0  0  0
    3.3586   27.1369   23.8627 C   0  0  0  0  0  0  0  0  0  0  0  0
    2.8620   28.5380   23.5586 C   0  0  0  0  0  0  0  0  0  0  0  0
    3.3639   29.0011   22.2045 C   0  0  0  0  0  0  0  0  0  0  0  0
    2.8567   30.4039   21.9183 C   0  0  0  0  0  0  0  0  0  0  0  0
    3.3559   30.8690   20.5629 C   0  0  0  0  0  0  0  0  0  0  0  0
    2.8515   32.2713   20.2766 C   0  0  0  0  0  0  0  0  0  0  0  0
    3.3526   32.7327   18.9207 C   0  0  0  0  0  0  0  0  0  0  0  0
    2.8508   34.1353   18.6340 C   0  0  0  0  0  0  0  0  0  0  0  0
    3.3505   34.5943   17.2784 C   0  0  0  0  0  0  0  0  0  0  0  0
    2.8490   35.9956   16.9914 C   0  0  0  0  0  0  0  0  0  0  0  0
    3.3493   36.4507   15.6338 C   0  0  0  0  0  0  0  0  0  0  0  0
    2.8458   37.8456   15.3434 C   0  0  0  0  0  0  0  0  0  0  0  0
    3.3461   38.3151   13.9872 C   0  0  0  0  0  0  0  0  0  0  0  0
    2.8462   39.7194   13.7006 C   0  0  0  0  0  0  0  0  0  0  0  0
    3.3520   40.6838   14.7609 C   0  0  0  0  0  0  0  0  0  0  0  0
    2.8469   42.0806   14.4829 C   0  0  0  0  0  0  0  0  0  0  0  0
    3.3512   43.0318   15.5511 C   0  0  0  0  0  0  0  0  0  0  0  0
    2.8469   44.4317   15.2671 C   0  0  0  0  0  0  0  0  0  0  0  0
    3.3513   45.3866   16.3325 C   0  0  0  0  0  0  0  0  0  0  0  0
    2.8474   46.7885   16.0478 C   0  0  0  0  0  0  0  0  0  0  0  0
    3.3497   47.7423   17.1146 C   0  0  0  0  0  0  0  0  0  0  0  0
    2.8442   49.1438   16.8311 C   0  0  0  0  0  0  0  0  0  0  0  0
    3.3450   50.0970   17.8991 C   0  0  0  0  0  0  0  0  0  0  0  0
    2.8410   51.4987   17.6145 C   0  0  0  0  0  0  0  0  0  0  0  0
    3.3402   52.4518   18.6833 C   0  0  0  0  0  0  0  0  0  0  0  0
    2.8344   53.8530   18.3994 C   0  0  0  0  0  0  0  0  0  0  0  0
    3.3332   54.8058   19.4684 C   0  0  0  0  0  0  0  0  0  0  0  0
    2.8278   56.2071   19.1845 C   0  0  0  0  0  0  0  0  0  0  0  0
    3.3247   57.1596   20.2546 C   0  0  0  0  0  0  0  0  0  0  0  0
    2.8196   58.5611   19.9701 C   0  0  0  0  0  0  0  0  0  0  0  0
    3.3149   59.5140   21.0409 C   0  0  0  0  0  0  0  0  0  0  0  0
    2.8099   60.9159   20.7585 C   0  0  0  0  0  0  0  0  0  0  0  0
    3.3065   61.8688   21.8288 C   0  0  0  0  0  0  0  0  0  0  0  0
    2.8011   63.2705   21.5452 C   0  0  0  0  0  0  0  0  0  0  0  0
    3.2968   64.2230   22.6164 C   0  0  0  0  0  0  0  0  0  0  0  0
    2.7929   65.6249   22.3319 C   0  0  0  0  0  0  0  0  0  0  0  0
    3.2870   66.5770   23.4042 C   0  0  0  0  0  0  0  0  0  0  0  0
    2.7814   67.9786   23.1206 C   0  0  0  0  0  0  0  0  0  0  0  0
    3.2771   68.9311   24.1918 C   0  0  0  0  0  0  0  0  0  0  0  0
    2.7731   70.3331   23.9071 C   0  0  0  0  0  0  0  0  0  0  0  0
    3.2670   71.2856   24.9793 C   0  0  0  0  0  0  0  0  0  0  0  0
    2.7614   72.6874   24.6958 C   0  0  0  0  0  0  0  0  0  0  0  0
    3.2553   73.6400   25.7681 C   0  0  0  0  0  0  0  0  0  0  0  0
    2.7519   75.0431   25.4846 C   0  0  0  0  0  0  0  0  0  0  0  0
    3.2484   75.9955   26.5571 C   0  0  0  0  0  0  0  0  0  0  0  0
    2.7486   77.4003   26.2758 C   0  0  0  0  0  0  0  0  0  0  0  0
    3.2440   78.3528   27.3504 C   0  0  0  0  0  0  0  0  0  0  0  0
    2.7442   79.7566   27.0650 C   0  0  0  0  0  0  0  0  0  0  0  0
    3.2308   80.7236   28.1290 C   0  0  0  0  0  0  0  0  0  0  0  0
    2.7248   82.1144   27.8203 C   0  0  0  0  0  0  0  0  0  0  0  0
    3.2085   83.0022   28.8200 O   0  0  0  0  0  0  0  0  0  0  0  0
    2.7168   84.3197   28.5806 C   0  0  0  0  0  0  0  0  0  0  0  0
    1.2920   84.3822   28.5755 O   0  0  0  0  0  0  0  0  0  0  0  0
    0.7637   83.9396   29.8180 C   0  0  0  0  0  0  0  0  0  0  0  0
   -0.6514   83.9688   29.7903 O   0  0  0  0  0  0  0  0  0  0  0  0
   12.2449   24.1677   41.3886 H   0  0  0  0  0  0  0  0  0  0  0  0
   11.2877   24.1307   39.9027 H   0  0  0  0  0  0  0  0  0  0  0  0
   12.5046   22.8770   40.2038 H   0  0  0  0  0  0  0  0  0  0  0  0
    9.9133   23.2936   41.8416 H   0  0  0  0  0  0  0  0  0  0  0  0
   11.2791   20.6906   42.2609 H   0  0  0  0  0  0  0  0  0  0  0  0
    9.0468   19.6736   36.5719 H   0  0  0  0  0  0  0  0  0  0  0  0
    9.1555   20.9617   35.3671 H   0  0  0  0  0  0  0  0  0  0  0  0
    7.2602   22.8177   36.7744 H   0  0  0  0  0  0  0  0  0  0  0  0
    5.7958   22.1250   36.0398 H   0  0  0  0  0  0  0  0  0  0  0  0
    7.2455   24.5660   35.1919 H   0  0  0  0  0  0  0  0  0  0  0  0
    5.7663   23.8866   34.4645 H   0  0  0  0  0  0  0  0  0  0  0  0
    8.4370   24.3337   33.0265 H   0  0  0  0  0  0  0  0  0  0  0  0
    6.9987   25.3398   32.8572 H   0  0  0  0  0  0  0  0  0  0  0  0
    5.7181   23.3563   32.0024 H   0  0  0  0  0  0  0  0  0  0  0  0
    7.1568   22.3527   32.1701 H   0  0  0  0  0  0  0  0  0  0  0  0
    8.3651   23.8126   30.5189 H   0  0  0  0  0  0  0  0  0  0  0  0
    6.9319   24.8084   30.3462 H   0  0  0  0  0  0  0  0  0  0  0  0
    5.6333   22.8236   29.5761 H   0  0  0  0  0  0  0  0  0  0  0  0
    7.0859   21.8075   29.7388 H   0  0  0  0  0  0  0  0  0  0  0  0
    7.0384   21.3503   27.4342 H   0  0  0  0  0  0  0  0  0  0  0  0
    7.0332   22.6931   26.2739 H   0  0  0  0  0  0  0  0  0  0  0  0
    5.1133   23.9855   26.0176 H   0  0  0  0  0  0  0  0  0  0  0  0
    5.0997   24.3394   27.7700 H   0  0  0  0  0  0  0  0  0  0  0  0
    3.2099   25.6408   27.5324 H   0  0  0  0  0  0  0  0  0  0  0  0
    1.7579   24.9448   26.7577 H   0  0  0  0  0  0  0  0  0  0  0  0
    3.2030   27.3903   25.9948 H   0  0  0  0  0  0  0  0  0  0  0  0
    1.7451   26.7065   25.2229 H   0  0  0  0  0  0  0  0  0  0  0  0
    3.0235   26.4292   23.0941 H   0  0  0  0  0  0  0  0  0  0  0  0
    4.4553   27.1008   23.8520 H   0  0  0  0  0  0  0  0  0  0  0  0
    3.2043   29.2307   24.3378 H   0  0  0  0  0  0  0  0  0  0  0  0
    1.7650   28.5544   23.5731 H   0  0  0  0  0  0  0  0  0  0  0  0
    3.0195   28.3131   21.4229 H   0  0  0  0  0  0  0  0  0  0  0  0
    4.4605   28.9904   22.1886 H   0  0  0  0  0  0  0  0  0  0  0  0
    3.2009   31.0936   22.6992 H   0  0  0  0  0  0  0  0  0  0  0  0
    1.7597   30.4171   21.9362 H   0  0  0  0  0  0  0  0  0  0  0  0
    3.0098   30.1812   19.7815 H   0  0  0  0  0  0  0  0  0  0  0  0
    4.4526   30.8561   20.5444 H   0  0  0  0  0  0  0  0  0  0  0  0
    3.1975   32.9601   21.0571 H   0  0  0  0  0  0  0  0  0  0  0  0
    1.7547   32.2855   20.2943 H   0  0  0  0  0  0  0  0  0  0  0  0
    3.0055   32.0448   18.1399 H   0  0  0  0  0  0  0  0  0  0  0  0
    4.4494   32.7174   18.9023 H   0  0  0  0  0  0  0  0  0  0  0  0
    3.1993   34.8239   19.4135 H   0  0  0  0  0  0  0  0  0  0  0  0
    1.7541   34.1514   18.6531 H   0  0  0  0  0  0  0  0  0  0  0  0
    3.0023   33.9063   16.4975 H   0  0  0  0  0  0  0  0  0  0  0  0
    4.4475   34.5788   17.2578 H   0  0  0  0  0  0  0  0  0  0  0  0
    3.1972   36.6856   17.7708 H   0  0  0  0  0  0  0  0  0  0  0  0
    1.7521   36.0130   17.0105 H   0  0  0  0  0  0  0  0  0  0  0  0
    3.0019   35.7639   14.8559 H   0  0  0  0  0  0  0  0  0  0  0  0
    4.4457   36.4384   15.6157 H   0  0  0  0  0  0  0  0  0  0  0  0
    3.1987   38.5079   16.1399 H   0  0  0  0  0  0  0  0  0  0  0  0
    1.7496   37.8720   15.3674 H   0  0  0  0  0  0  0  0  0  0  0  0
    2.9969   37.6304   13.2063 H   0  0  0  0  0  0  0  0  0  0  0  0
    4.4432   38.3003   13.9679 H   0  0  0  0  0  0  0  0  0  0  0  0
    1.7491   39.7264   13.6821 H   0  0  0  0  0  0  0  0  0  0  0  0
    3.1914   40.0417   12.7120 H   0  0  0  0  0  0  0  0  0  0  0  0
    4.4484   40.6690   14.7876 H   0  0  0  0  0  0  0  0  0  0  0  0
    3.0044   40.3873   15.7553 H   0  0  0  0  0  0  0  0  0  0  0  0
    1.7507   42.0849   14.4658 H   0  0  0  0  0  0  0  0  0  0  0  0
    3.1904   42.4075   13.4965 H   0  0  0  0  0  0  0  0  0  0  0  0
    4.4481   43.0239   15.5711 H   0  0  0  0  0  0  0  0  0  0  0  0
    3.0070   42.7027   16.5402 H   0  0  0  0  0  0  0  0  0  0  0  0
    1.7506   44.4388   15.2473 H   0  0  0  0  0  0  0  0  0  0  0  0
    3.1916   44.7601   14.2782 H   0  0  0  0  0  0  0  0  0  0  0  0
    4.4482   45.3802   16.3522 H   0  0  0  0  0  0  0  0  0  0  0  0
    3.0071   45.0589   17.3212 H   0  0  0  0  0  0  0  0  0  0  0  0
    1.7506   46.7947   16.0269 H   0  0  0  0  0  0  0  0  0  0  0  0
    3.1929   47.1168   15.0598 H   0  0  0  0  0  0  0  0  0  0  0  0
    4.4465   47.7372   17.1347 H   0  0  0  0  0  0  0  0  0  0  0  0
    3.0055   47.4132   18.1029 H   0  0  0  0  0  0  0  0  0  0  0  0
    1.7474   49.1487   16.8097 H   0  0  0  0  0  0  0  0  0  0  0  0
    3.1896   49.4735   15.8435 H   0  0  0  0  0  0  0  0  0  0  0  0
    4.4417   50.0910   17.9218 H   0  0  0  0  0  0  0  0  0  0  0  0
    2.9980   49.7681   18.8865 H   0  0  0  0  0  0  0  0  0  0  0  0
    1.7443   51.5043   17.5910 H   0  0  0  0  0  0  0  0  0  0  0  0
    3.1887   51.8282   16.6276 H   0  0  0  0  0  0  0  0  0  0  0  0
    4.4369   52.4477   18.7054 H   0  0  0  0  0  0  0  0  0  0  0  0
    2.9942   52.1217   19.6706 H   0  0  0  0  0  0  0  0  0  0  0  0
    1.7376   53.8578   18.3767 H   0  0  0  0  0  0  0  0  0  0  0  0
    3.1811   54.1832   17.4124 H   0  0  0  0  0  0  0  0  0  0  0  0
    4.4301   54.8010   19.4926 H   0  0  0  0  0  0  0  0  0  0  0  0
    2.9853   54.4751   20.4549 H   0  0  0  0  0  0  0  0  0  0  0  0
    1.7310   56.2118   19.1609 H   0  0  0  0  0  0  0  0  0  0  0  0
    3.1750   56.5379   18.1978 H   0  0  0  0  0  0  0  0  0  0  0  0
    4.4216   57.1554   20.2803 H   0  0  0  0  0  0  0  0  0  0  0  0
    2.9755   56.8280   21.2400 H   0  0  0  0  0  0  0  0  0  0  0  0
    1.7225   58.5645   19.9432 H   0  0  0  0  0  0  0  0  0  0  0  0
    3.1697   58.8918   18.9844 H   0  0  0  0  0  0  0  0  0  0  0  0
    4.4119   59.5110   21.0652 H   0  0  0  0  0  0  0  0  0  0  0  0
    2.9675   59.1817   22.0267 H   0  0  0  0  0  0  0  0  0  0  0  0
    1.7130   60.9200   20.7341 H   0  0  0  0  0  0  0  0  0  0  0  0
    3.1578   61.2475   19.7726 H   0  0  0  0  0  0  0  0  0  0  0  0
    4.4034   61.8650   21.8535 H   0  0  0  0  0  0  0  0  0  0  0  0
    2.9585   61.5380   22.8151 H   0  0  0  0  0  0  0  0  0  0  0  0
    1.7044   63.2747   21.5194 H   0  0  0  0  0  0  0  0  0  0  0  0
    3.1502   63.6019   20.5594 H   0  0  0  0  0  0  0  0  0  0  0  0
    4.3935   64.2180   22.6432 H   0  0  0  0  0  0  0  0  0  0  0  0
    2.9466   63.8924   23.6021 H   0  0  0  0  0  0  0  0  0  0  0  0
    1.6963   65.6298   22.3037 H   0  0  0  0  0  0  0  0  0  0  0  0
    3.1444   65.9560   21.3468 H   0  0  0  0  0  0  0  0  0  0  0  0
    4.3837   66.5732   23.4314 H   0  0  0  0  0  0  0  0  0  0  0  0
    2.9367   66.2452   24.3894 H   0  0  0  0  0  0  0  0  0  0  0  0
    1.6847   67.9826   23.0948 H   0  0  0  0  0  0  0  0  0  0  0  0
    3.1305   68.3098   22.1348 H   0  0  0  0  0  0  0  0  0  0  0  0
    4.3737   68.9261   24.2185 H   0  0  0  0  0  0  0  0  0  0  0  0
    2.9268   68.6005   25.1774 H   0  0  0  0  0  0  0  0  0  0  0  0
    1.6765   70.3378   23.8789 H   0  0  0  0  0  0  0  0  0  0  0  0
    3.1245   70.6640   22.9220 H   0  0  0  0  0  0  0  0  0  0  0  0
    4.3637   71.2817   25.0065 H   0  0  0  0  0  0  0  0  0  0  0  0
    2.9168   70.9536   25.9644 H   0  0  0  0  0  0  0  0  0  0  0  0
    1.6648   72.6909   24.6685 H   0  0  0  0  0  0  0  0  0  0  0  0
    3.1117   73.0190   23.7105 H   0  0  0  0  0  0  0  0  0  0  0  0
    4.3519   73.6347   25.7961 H   0  0  0  0  0  0  0  0  0  0  0  0
    2.9040   73.3085   26.7530 H   0  0  0  0  0  0  0  0  0  0  0  0
    1.6553   75.0481   25.4578 H   0  0  0  0  0  0  0  0  0  0  0  0
    3.1022   75.3736   24.4990 H   0  0  0  0  0  0  0  0  0  0  0  0
    4.3450   75.9875   26.5840 H   0  0  0  0  0  0  0  0  0  0  0  0
    2.8968   75.6638   27.5418 H   0  0  0  0  0  0  0  0  0  0  0  0
    1.6519   77.4067   26.2462 H   0  0  0  0  0  0  0  0  0  0  0  0
    3.1007   77.7309   25.2908 H   0  0  0  0  0  0  0  0  0  0  0  0
    4.3405   78.3448   27.3793 H   0  0  0  0  0  0  0  0  0  0  0  0
    2.8896   78.0222   28.3343 H   0  0  0  0  0  0  0  0  0  0  0  0
    1.6474   79.7599   27.0320 H   0  0  0  0  0  0  0  0  0  0  0  0
    3.0968   80.0819   26.0782 H   0  0  0  0  0  0  0  0  0  0  0  0
    4.3256   80.7339   28.1746 H   0  0  0  0  0  0  0  0  0  0  0  0
    2.8865   80.4127   29.1232 H   0  0  0  0  0  0  0  0  0  0  0  0
    1.6267   82.1092   27.8043 H   0  0  0  0  0  0  0  0  0  0  0  0
    3.0851   82.4462   26.8407 H   0  0  0  0  0  0  0  0  0  0  0  0
    3.0941   84.6656   27.6119 H   0  0  0  0  0  0  0  0  0  0  0  0
    3.0983   84.9905   29.3564 H   0  0  0  0  0  0  0  0  0  0  0  0
    1.1280   84.5764   30.6321 H   0  0  0  0  0  0  0  0  0  0  0  0
    1.0663   82.9049   30.0202 H   0  0  0  0  0  0  0  0  0  0  0  0
   -0.9034   84.9073   29.8151 H   0  0  0  0  0  0  0  0  0  0  0  0
  1  2  1  0  0  0  0
  1 80  1  0  0  0  0
  1 81  1  0  0  0  0
  1 82  1  0  0  0  0
  2  3  1  0  0  0  0
  2  4  1  0  0  0  0
  2 83  1  0  0  0  0
  3  4  2  0  0  0  0
  3 84  1  0  0  0  0
  4  5  1  0  0  0  0
  5  6  1  0  0  0  0
  6  7  1  0  0  0  0
  7  8  1  0  0  0  0
  8  9  1  0  0  0  0
  8 85  1  0  0  0  0
  8 86  1  0  0  0  0
  9 10  1  0  0  0  0
 10 11  1  0  0  0  0
 10 87  1  0  0  0  0
 10 88  1  0  0  0  0
 11 12  1  0  0  0  0
 12 13  1  0  0  0  0
 12 89  1  0  0  0  0
 12 90  1  0  0  0  0
 13 14  1  0  0  0  0
 13 91  1  0  0  0  0
 13 92  1  0  0  0  0
 14 15  1  0  0  0  0
 14 93  1  0  0  0  0
 14 94  1  0  0  0  0
 15 16  1  0  0  0  0
 15 95  1  0  0  0  0
 15 96  1  0  0  0  0
 16 17  1  0  0  0  0
 16 97  1  0  0  0  0
 16 98  1  0  0  0  0
 17 18  1  0  0  0  0
 18 19  1  0  0  0  0
 18 99  1  0  0  0  0
 18100  1  0  0  0  0
 19 20  1  0  0  0  0
 20 21  1  0  0  0  0
 20101  1  0  0  0  0
 20102  1  0  0  0  0
 21 22  1  0  0  0  0
 22 23  1  0  0  0  0
 22103  1  0  0  0  0
 22104  1  0  0  0  0
 23 24  1  0  0  0  0
 24 25  1  0  0  0  0
 24105  1  0  0  0  0
 24106  1  0  0  0  0
 25 26  1  0  0  0  0
 25107  1  0  0  0  0
 25108  1  0  0  0  0
 26 27  1  0  0  0  0
 26109  1  0  0  0  0
 26110  1  0  0  0  0
 27 28  1  0  0  0  0
 27111  1  0  0  0  0
 27112  1  0  0  0  0
 28 29  1  0  0  0  0
 28113  1  0  0  0  0
 28114  1  0  0  0  0
 29 30  1  0  0  0  0
 29115  1  0  0  0  0
 29116  1  0  0  0  0
 30 31  1  0  0  0  0
 30117  1  0  0  0  0
 30118  1  0  0  0  0
 31 32  1  0  0  0  0
 31119  1  0  0  0  0
 31120  1  0  0  0  0
 32 33  1  0  0  0  0
 32121  1  0  0  0  0
 32122  1  0  0  0  0
 33 34  1  0  0  0  0
 33123  1  0  0  0  0
 33124  1  0  0  0  0
 34 35  1  0  0  0  0
 34125  1  0  0  0  0
 34126  1  0  0  0  0
 35 36  1  0  0  0  0
 35127  1  0  0  0  0
 35128  1  0  0  0  0
 36 37  1  0  0  0  0
 36129  1  0  0  0  0
 36130  1  0  0  0  0
 37 38  1  0  0  0  0
 37131  1  0  0  0  0
 37132  1  0  0  0  0
 38 39  1  0  0  0  0
 38133  1  0  0  0  0
 38134  1  0  0  0  0
 39 40  1  0  0  0  0
 39135  1  0  0  0  0
 39136  1  0  0  0  0
 40 41  1  0  0  0  0
 40137  1  0  0  0  0
 40138  1  0  0  0  0
 41 42  1  0  0  0  0
 41139  1  0  0  0  0
 41140  1  0  0  0  0
 42 43  1  0  0  0  0
 42141  1  0  0  0  0
 42142  1  0  0  0  0
 43 44  1  0  0  0  0
 43143  1  0  0  0  0
 43144  1  0  0  0  0
 44 45  1  0  0  0  0
 44145  1  0  0  0  0
 44146  1  0  0  0  0
 45 46  1  0  0  0  0
 45147  1  0  0  0  0
 45148  1  0  0  0  0
 46 47  1  0  0  0  0
 46149  1  0  0  0  0
 46150  1  0  0  0  0
 47 48  1  0  0  0  0
 47151  1  0  0  0  0
 47152  1  0  0  0  0
 48 49  1  0  0  0  0
 48153  1  0  0  0  0
 48154  1  0  0  0  0
 49 50  1  0  0  0  0
 49155  1  0  0  0  0
 49156  1  0  0  0  0
 50 51  1  0  0  0  0
 50157  1  0  0  0  0
 50158  1  0  0  0  0
 51 52  1  0  0  0  0
 51159  1  0  0  0  0
 51160  1  0  0  0  0
 52 53  1  0  0  0  0
 52161  1  0  0  0  0
 52162  1  0  0  0  0
 53 54  1  0  0  0  0
 53163  1  0  0  0  0
 53164  1  0  0  0  0
 54 55  1  0  0  0  0
 54165  1  0  0  0  0
 54166  1  0  0  0  0
 55 56  1  0  0  0  0
 55167  1  0  0  0  0
 55168  1  0  0  0  0
 56 57  1  0  0  0  0
 56169  1  0  0  0  0
 56170  1  0  0  0  0
 57 58  1  0  0  0  0
 57171  1  0  0  0  0
 57172  1  0  0  0  0
 58 59  1  0  0  0  0
 58173  1  0  0  0  0
 58174  1  0  0  0  0
 59 60  1  0  0  0  0
 59175  1  0  0  0  0
 59176  1  0  0  0  0
 60 61  1  0  0  0  0
 60177  1  0  0  0  0
 60178  1  0  0  0  0
 61 62  1  0  0  0  0
 61179  1  0  0  0  0
 61180  1  0  0  0  0
 62 63  1  0  0  0  0
 62181  1  0  0  0  0
 62182  1  0  0  0  0
 63 64  1  0  0  0  0
 63183  1  0  0  0  0
 63184  1  0  0  0  0
 64 65  1  0  0  0  0
 64185  1  0  0  0  0
 64186  1  0  0  0  0
 65 66  1  0  0  0  0
 65187  1  0  0  0  0
 65188  1  0  0  0  0
 66 67  1  0  0  0  0
 66189  1  0  0  0  0
 66190  1  0  0  0  0
 67 68  1  0  0  0  0
 67191  1  0  0  0  0
 67192  1  0  0  0  0
 68 69  1  0  0  0  0
 68193  1  0  0  0  0
 68194  1  0  0  0  0
 69 70  1  0  0  0  0
 69195  1  0  0  0  0
 69196  1  0  0  0  0
 70 71  1  0  0  0  0
 70197  1  0  0  0  0
 70198  1  0  0  0  0
 71 72  1  0  0  0  0
 71199  1  0  0  0  0
 71200  1  0  0  0  0
 72 73  1  0  0  0  0
 72201  1  0  0  0  0
 72202  1  0  0  0  0
 73 74  1  0  0  0  0
 73203  1  0  0  0  0
 73204  1  0  0  0  0
 74 75  1  0  0  0  0
 74205  1  0  0  0  0
 74206  1  0  0  0  0
 75 76  1  0  0  0  0
 76 77  1  0  0  0  0
 76207  1  0  0  0  0
 76208  1  0  0  0  0
 77 78  1  0  0  0  0
 78 79  1  0  0  0  0
 78209  1  0  0  0  0
 78210  1  0  0  0  0
 79211  1  0  0  0  0
M  END
$$$$
