
 OpenBabel04232216513D

 35 35  0  0  0  0  0  0  0  0999 V2000
    0.5341   -0.1289    0.2409 C   0  0  0  0  0  0  0  0  0  0  0  0
    1.9659    0.2952   -0.0701 C   0  0  0  0  0  0  0  0  0  0  0  0
    2.8268    0.5767    1.1761 C   0  0  0  0  0  0  0  0  0  0  0  0
    3.1019   -0.6157    2.1342 C   0  0  0  0  0  0  0  0  0  0  0  0
    3.0084   -2.0619    1.6190 C   0  0  0  0  0  0  0  0  0  0  0  0
    4.2892   -2.7395    1.1248 C   0  0  0  0  0  0  0  0  0  0  0  0
    4.9543   -2.0889   -0.0835 C   0  0  0  0  0  0  0  0  0  0  0  0
    6.1065   -1.1660    0.3134 C   0  0  0  0  0  0  0  0  0  0  0  0
    6.4896   -0.2079   -0.8161 C   0  0  0  0  0  0  0  0  0  0  0  0
    6.1930    1.2665   -0.5148 C   0  0  0  0  0  0  0  0  0  0  0  0
    4.7005    1.6069   -0.4380 C   0  0  0  0  0  0  0  0  0  0  0  0
    4.1118    1.3214    0.9060 C   0  0  0  0  0  3  0  0  0  0  0  0
    0.0317   -0.4306   -0.6845 H   0  0  0  0  0  0  0  0  0  0  0  0
   -0.0278    0.7069    0.6735 H   0  0  0  0  0  0  0  0  0  0  0  0
    0.4788   -0.9645    0.9394 H   0  0  0  0  0  0  0  0  0  0  0  0
    1.9031    1.2042   -0.6820 H   0  0  0  0  0  0  0  0  0  0  0  0
    2.4313   -0.4631   -0.7036 H   0  0  0  0  0  0  0  0  0  0  0  0
    2.2430    1.2974    1.7701 H   0  0  0  0  0  0  0  0  0  0  0  0
    2.3394   -0.5358    2.9270 H   0  0  0  0  0  0  0  0  0  0  0  0
    4.0520   -0.4847    2.6676 H   0  0  0  0  0  0  0  0  0  0  0  0
    2.2355   -2.1744    0.8563 H   0  0  0  0  0  0  0  0  0  0  0  0
    2.6574   -2.6707    2.4654 H   0  0  0  0  0  0  0  0  0  0  0  0
    4.0041   -3.7593    0.8356 H   0  0  0  0  0  0  0  0  0  0  0  0
    5.0020   -2.8547    1.9524 H   0  0  0  0  0  0  0  0  0  0  0  0
    4.2145   -1.5739   -0.6987 H   0  0  0  0  0  0  0  0  0  0  0  0
    5.3702   -2.8815   -0.7199 H   0  0  0  0  0  0  0  0  0  0  0  0
    6.9719   -1.7967    0.5506 H   0  0  0  0  0  0  0  0  0  0  0  0
    5.8855   -0.6209    1.2347 H   0  0  0  0  0  0  0  0  0  0  0  0
    6.0153   -0.4946   -1.7624 H   0  0  0  0  0  0  0  0  0  0  0  0
    7.5712   -0.2944   -0.9807 H   0  0  0  0  0  0  0  0  0  0  0  0
    6.6342    1.8614   -1.3257 H   0  0  0  0  0  0  0  0  0  0  0  0
    6.7099    1.5695    0.4034 H   0  0  0  0  0  0  0  0  0  0  0  0
    4.1681    1.0963   -1.2431 H   0  0  0  0  0  0  0  0  0  0  0  0
    4.5834    2.6833   -0.6184 H   0  0  0  0  0  0  0  0  0  0  0  0
    4.5659    1.8288    1.7565 H   0  0  0  0  0  0  0  0  0  0  0  0
  1  2  1  0  0  0  0
  1 13  1  0  0  0  0
  1 14  1  0  0  0  0
  1 15  1  0  0  0  0
  2  3  1  0  0  0  0
  2 16  1  0  0  0  0
  2 17  1  0  0  0  0
  3  4  1  0  0  0  0
  3 12  1  0  0  0  0
  3 18  1  0  0  0  0
  4  5  1  0  0  0  0
  4 19  1  0  0  0  0
  4 20  1  0  0  0  0
  5  6  1  0  0  0  0
  5 21  1  0  0  0  0
  5 22  1  0  0  0  0
  6  7  1  0  0  0  0
  6 23  1  0  0  0  0
  6 24  1  0  0  0  0
  7  8  1  0  0  0  0
  7 25  1  0  0  0  0
  7 26  1  0  0  0  0
  8  9  1  0  0  0  0
  8 27  1  0  0  0  0
  8 28  1  0  0  0  0
  9 10  1  0  0  0  0
  9 29  1  0  0  0  0
  9 30  1  0  0  0  0
 10 11  1  0  0  0  0
 10 31  1  0  0  0  0
 10 32  1  0  0  0  0
 11 12  1  0  0  0  0
 11 33  1  0  0  0  0
 11 34  1  0  0  0  0
 12 35  1  0  0  0  0
M  END
$$$$
