
 OpenBabel04232217033D

124123  0  0  0  0  0  0  0  0999 V2000
   46.4094  -33.6778    5.8744 S   0  0  0  0  0  0  0  0  0  0  0  0
   45.6841  -32.4105    5.0826 O   0  0  0  0  0  0  0  0  0  0  0  0
   44.7015  -31.7624    5.9302 O   0  0  0  0  0  0  0  0  0  0  0  0
   43.5180  -31.0364    5.0143 S   0  0  0  0  0  0  0  0  0  0  0  0
   44.4513  -29.8209    4.3743 N   0  0  0  0  0  0  0  0  0  0  0  0
   43.6439  -28.8601    3.7172 N   0  0  0  0  0  0  0  0  0  0  0  0
   44.3619  -28.2713    2.6512 N   0  0  0  0  0  0  0  0  0  0  0  0
   43.5657  -27.2667    2.0349 N   0  0  0  0  0  0  0  0  0  0  0  0
   44.1839  -26.8122    0.8357 N   0  0  0  0  0  0  0  0  0  0  0  0
   44.1965  -27.8562   -0.1400 N   0  0  0  0  0  0  0  0  0  0  0  0
   44.8336  -27.3747   -1.5873 S   0  0  0  0  0  0  0  0  0  0  0  0
   46.3867  -26.8763   -1.3371 N   0  0  0  0  0  0  0  0  0  0  0  0
   47.3496  -28.0495   -0.6989 S   0  0  0  0  0  0  0  0  0  0  0  0
   48.8494  -27.3805   -0.5393 N   0  0  0  0  0  0  0  0  0  0  0  0
   48.9174  -26.0506    0.4426 S   0  0  0  0  0  0  0  0  0  0  0  0
   48.3832  -26.4896    1.9409 N   0  0  0  0  0  0  0  0  0  0  0  0
   49.4231  -27.4709    2.7657 S   0  0  0  0  0  0  0  0  0  0  0  0
   50.8820  -26.7071    2.9467 N   0  0  0  0  0  0  0  0  0  0  0  0
   50.8514  -25.2687    3.7599 S   0  0  0  0  0  0  0  0  0  0  0  0
   50.1441  -25.5807    5.2020 N   0  0  0  0  0  0  0  0  0  0  0  0
   50.9561  -25.1725    6.5625 S   0  0  0  0  0  0  0  0  0  0  0  0
   52.5691  -25.3826    6.3864 N   0  0  0  0  0  0  0  0  0  0  0  0
   53.4545  -24.7759    7.6433 S   0  0  0  0  0  0  0  0  0  0  0  0
   52.7697  -25.3134    9.0583 N   0  0  0  0  0  0  0  0  0  0  0  0
   52.7557  -24.1578   10.2467 S   0  0  0  0  0  0  0  0  0  0  0  0
   52.1436  -22.7623    9.5868 N   0  0  0  0  0  0  0  0  0  0  0  0
   50.5139  -22.8703    9.3132 S   0  0  0  0  0  0  0  0  0  0  0  0
   50.0615  -21.4970    8.5294 N   0  0  0  0  0  0  0  0  0  0  0  0
   50.7686  -21.2460    7.0501 S   0  0  0  0  0  0  0  0  0  0  0  0
   50.1032  -22.2441    5.9178 N   0  0  0  0  0  0  0  0  0  0  0  0
   48.4686  -22.1276    5.7488 S   0  0  0  0  0  0  0  0  0  0  0  0
   47.8950  -23.1804    6.8840 N   0  0  0  0  0  0  0  0  0  0  0  0
   46.2599  -23.3420    6.8176 S   0  0  0  0  0  0  0  0  0  0  0  0
   45.9504  -24.5865    5.7720 N   0  0  0  0  0  0  0  0  0  0  0  0
   46.3979  -26.0833    6.3084 S   0  0  0  0  0  0  0  0  0  0  0  0
   45.7544  -26.3317    7.8086 N   0  0  0  0  0  0  0  0  0  0  0  0
   44.1143  -26.5510    7.7995 S   0  0  0  0  0  0  0  0  0  0  0  0
   43.8236  -28.0960    7.3001 N   0  0  0  0  0  0  0  0  0  0  0  0
   44.4239  -29.2341    8.3330 S   0  0  0  0  0  0  0  0  0  0  0  0
   45.9761  -29.4473    7.8033 N   0  0  0  0  0  0  0  0  0  0  0  0
   46.6445  -30.7855    8.4883 S   0  0  0  0  0  0  0  0  0  0  0  0
   48.2591  -30.7506    8.1515 N   0  0  0  0  0  0  0  0  0  0  0  0
   48.6150  -30.9802    6.5523 S   0  0  0  0  0  0  0  0  0  0  0  0
   48.5737  -29.5058    5.8226 N   0  0  0  0  0  0  0  0  0  0  0  0
   49.5136  -28.3792    6.5720 S   0  0  0  0  0  0  0  0  0  0  0  0
   51.0619  -28.9257    6.6767 N   0  0  0  0  0  0  0  0  0  0  0  0
   51.8180  -29.1291    5.2225 S   0  0  0  0  0  0  0  0  0  0  0  0
   53.1368  -28.1314    5.2536 N   0  0  0  0  0  0  0  0  0  0  0  0
   54.2898  -28.6765    6.3009 S   0  0  0  0  0  0  0  0  0  0  0  0
   53.8439  -27.9855    7.7314 N   0  0  0  0  0  0  0  0  0  0  0  0
   54.1261  -28.9576    9.0209 S   0  0  0  0  0  0  0  0  0  0  0  0
   55.7385  -28.7969    9.3215 N   0  0  0  0  0  0  0  0  0  0  0  0
   56.1237  -27.4620   10.2167 S   0  0  0  0  0  0  0  0  0  0  0  0
   55.4880  -27.5949   11.7377 N   0  0  0  0  0  0  0  0  0  0  0  0
   55.6339  -29.0641   12.4775 S   0  0  0  0  0  0  0  0  0  0  0  0
   57.2375  -29.4612   12.4741 N   0  0  0  0  0  0  0  0  0  0  0  0
   57.5475  -30.7562   13.4505 S   0  0  0  0  0  0  0  0  0  0  0  0
   56.8798  -32.0679   12.6899 N   0  0  0  0  0  0  0  0  0  0  0  0
   57.4560  -33.4936   13.2932 S   0  0  0  0  0  0  0  0  0  0  0  0
   56.7621  -33.6599   14.7894 N   0  0  0  0  0  0  0  0  0  0  0  0
   56.7402  -35.2337   15.2957 S   0  0  0  0  0  0  0  0  0  0  0  0
   58.3091  -35.6288   15.6491 N   0  0  0  0  0  0  0  0  0  0  0  0
   58.4129  -36.8646   16.7432 S   0  0  0  0  0  0  0  0  0  0  0  0
   57.9051  -38.2280   15.9503 N   0  0  0  0  0  0  0  0  0  0  0  0
   58.5728  -39.6017   16.5871 S   0  0  0  0  0  0  0  0  0  0  0  0
   57.8355  -39.8419   18.0513 N   0  0  0  0  0  0  0  0  0  0  0  0
   57.8075  -41.4392   18.4788 S   0  0  0  0  0  0  0  0  0  0  0  0
   59.3700  -41.8408   18.8640 N   0  0  0  0  0  0  0  0  0  0  0  0
   59.4336  -43.1631   19.8546 S   0  0  0  0  0  0  0  0  0  0  0  0
   59.0679  -44.4777   18.9211 N   0  0  0  0  0  0  0  0  0  0  0  0
   59.6241  -45.8536   19.6425 S   0  0  0  0  0  0  0  0  0  0  0  0
   58.8591  -47.1193   18.9085 N   0  0  0  0  0  0  0  0  0  0  0  0
   59.3992  -47.4603   17.3833 S   0  0  0  0  0  0  0  0  0  0  0  0
   61.0114  -47.8164   17.4701 N   0  0  0  0  0  0  0  0  0  0  0  0
   61.3000  -49.2474   18.2417 S   0  0  0  0  0  0  0  0  0  0  0  0
   62.9279  -49.4999   18.1634 N   0  0  0  0  0  0  0  0  0  0  0  0
   63.8683  -48.3423   18.8827 S   0  0  0  0  0  0  0  0  0  0  0  0
   63.4122  -48.1945   20.4616 N   0  0  0  0  0  0  0  0  0  0  0  0
   63.7728  -49.5354   21.3580 S   0  0  0  0  0  0  0  0  0  0  0  0
   63.3800  -49.1428   22.9120 N   0  0  0  0  0  0  0  0  0  0  0  0
   61.7564  -48.8944   23.1149 S   0  0  0  0  0  0  0  0  0  0  0  0
   47.4459  -32.9847    6.3817 H   0  0  0  0  0  0  0  0  0  0  0  0
   45.0965  -30.2535    3.7116 H   0  0  0  0  0  0  0  0  0  0  0  0
   43.3117  -28.1562    4.3800 H   0  0  0  0  0  0  0  0  0  0  0  0
   44.5350  -28.9826    1.9306 H   0  0  0  0  0  0  0  0  0  0  0  0
   43.4001  -26.4856    2.6772 H   0  0  0  0  0  0  0  0  0  0  0  0
   45.1391  -26.5091    1.0311 H   0  0  0  0  0  0  0  0  0  0  0  0
   43.2416  -28.1989   -0.2727 H   0  0  0  0  0  0  0  0  0  0  0  0
   46.4118  -26.0245   -0.7816 H   0  0  0  0  0  0  0  0  0  0  0  0
   49.2325  -27.1635   -1.4595 H   0  0  0  0  0  0  0  0  0  0  0  0
   47.4879  -26.9676    1.8560 H   0  0  0  0  0  0  0  0  0  0  0  0
   51.3188  -26.6016    2.0328 H   0  0  0  0  0  0  0  0  0  0  0  0
   49.7884  -26.5362    5.2319 H   0  0  0  0  0  0  0  0  0  0  0  0
   52.8035  -26.3494    6.1520 H   0  0  0  0  0  0  0  0  0  0  0  0
   53.2426  -26.1551    9.3912 H   0  0  0  0  0  0  0  0  0  0  0  0
   52.6104  -22.6187    8.6889 H   0  0  0  0  0  0  0  0  0  0  0  0
   50.2453  -20.6927    9.1294 H   0  0  0  0  0  0  0  0  0  0  0  0
   50.4046  -23.2022    6.0140 H   0  0  0  0  0  0  0  0  0  0  0  0
   48.1889  -22.8291    7.7984 H   0  0  0  0  0  0  0  0  0  0  0  0
   46.4210  -24.3927    4.8863 H   0  0  0  0  0  0  0  0  0  0  0  0
   46.0009  -25.5548    8.4214 H   0  0  0  0  0  0  0  0  0  0  0  0
   44.1872  -28.2636    6.3628 H   0  0  0  0  0  0  0  0  0  0  0  0
   46.5119  -28.6019    8.0080 H   0  0  0  0  0  0  0  0  0  0  0  0
   48.7162  -31.4871    8.6874 H   0  0  0  0  0  0  0  0  0  0  0  0
   47.6084  -29.1738    5.7676 H   0  0  0  0  0  0  0  0  0  0  0  0
   51.0780  -29.8038    7.2050 H   0  0  0  0  0  0  0  0  0  0  0  0
   53.5208  -28.0331    4.3125 H   0  0  0  0  0  0  0  0  0  0  0  0
   52.8506  -27.7403    7.6883 H   0  0  0  0  0  0  0  0  0  0  0  0
   56.2298  -28.7576    8.4287 H   0  0  0  0  0  0  0  0  0  0  0  0
   54.5088  -27.3149   11.7273 H   0  0  0  0  0  0  0  0  0  0  0  0
   57.7791  -28.6511   12.7726 H   0  0  0  0  0  0  0  0  0  0  0  0
   57.0756  -32.0017   11.6900 H   0  0  0  0  0  0  0  0  0  0  0  0
   55.8120  -33.2942   14.7487 H   0  0  0  0  0  0  0  0  0  0  0  0
   58.7798  -34.7991   16.0155 H   0  0  0  0  0  0  0  0  0  0  0  0
   58.1582  -38.1420   14.9634 H   0  0  0  0  0  0  0  0  0  0  0  0
   56.8811  -39.4858   17.9986 H   0  0  0  0  0  0  0  0  0  0  0  0
   59.8078  -41.0414   19.3202 H   0  0  0  0  0  0  0  0  0  0  0  0
   59.4789  -44.3728   17.9925 H   0  0  0  0  0  0  0  0  0  0  0  0
   57.8473  -46.9932   18.9214 H   0  0  0  0  0  0  0  0  0  0  0  0
   61.5001  -47.0638   17.9535 H   0  0  0  0  0  0  0  0  0  0  0  0
   63.2171  -49.6438   17.1962 H   0  0  0  0  0  0  0  0  0  0  0  0
   62.4103  -48.0123   20.5230 H   0  0  0  0  0  0  0  0  0  0  0  0
   63.9269  -48.3411   23.2251 H   0  0  0  0  0  0  0  0  0  0  0  0
   61.3122  -50.0938   22.7059 H   0  0  0  0  0  0  0  0  0  0  0  0
  1  2  1  0  0  0  0
  1 82  1  0  0  0  0
  2  3  1  0  0  0  0
  3  4  1  0  0  0  0
  4  5  1  0  0  0  0
  5  6  1  0  0  0  0
  5 83  1  0  0  0  0
  6  7  1  0  0  0  0
  6 84  1  0  0  0  0
  7  8  1  0  0  0  0
  7 85  1  0  0  0  0
  8  9  1  0  0  0  0
  8 86  1  0  0  0  0
  9 10  1  0  0  0  0
  9 87  1  0  0  0  0
 10 11  1  0  0  0  0
 10 88  1  0  0  0  0
 11 12  1  0  0  0  0
 12 13  1  0  0  0  0
 12 89  1  0  0  0  0
 13 14  1  0  0  0  0
 14 15  1  0  0  0  0
 14 90  1  0  0  0  0
 15 16  1  0  0  0  0
 16 17  1  0  0  0  0
 16 91  1  0  0  0  0
 17 18  1  0  0  0  0
 18 19  1  0  0  0  0
 18 92  1  0  0  0  0
 19 20  1  0  0  0  0
 20 21  1  0  0  0  0
 20 93  1  0  0  0  0
 21 22  1  0  0  0  0
 22 23  1  0  0  0  0
 22 94  1  0  0  0  0
 23 24  1  0  0  0  0
 24 25  1  0  0  0  0
 24 95  1  0  0  0  0
 25 26  1  0  0  0  0
 26 27  1  0  0  0  0
 26 96  1  0  0  0  0
 27 28  1  0  0  0  0
 28 29  1  0  0  0  0
 28 97  1  0  0  0  0
 29 30  1  0  0  0  0
 30 31  1  0  0  0  0
 30 98  1  0  0  0  0
 31 32  1  0  0  0  0
 32 33  1  0  0  0  0
 32 99  1  0  0  0  0
 33 34  1  0  0  0  0
 34 35  1  0  0  0  0
 34100  1  0  0  0  0
 35 36  1  0  0  0  0
 36 37  1  0  0  0  0
 36101  1  0  0  0  0
 37 38  1  0  0  0  0
 38 39  1  0  0  0  0
 38102  1  0  0  0  0
 39 40  1  0  0  0  0
 40 41  1  0  0  0  0
 40103  1  0  0  0  0
 41 42  1  0  0  0  0
 42 43  1  0  0  0  0
 42104  1  0  0  0  0
 43 44  1  0  0  0  0
 44 45  1  0  0  0  0
 44105  1  0  0  0  0
 45 46  1  0  0  0  0
 46 47  1  0  0  0  0
 46106  1  0  0  0  0
 47 48  1  0  0  0  0
 48 49  1  0  0  0  0
 48107  1  0  0  0  0
 49 50  1  0  0  0  0
 50 51  1  0  0  0  0
 50108  1  0  0  0  0
 51 52  1  0  0  0  0
 52 53  1  0  0  0  0
 52109  1  0  0  0  0
 53 54  1  0  0  0  0
 54 55  1  0  0  0  0
 54110  1  0  0  0  0
 55 56  1  0  0  0  0
 56 57  1  0  0  0  0
 56111  1  0  0  0  0
 57 58  1  0  0  0  0
 58 59  1  0  0  0  0
 58112  1  0  0  0  0
 59 60  1  0  0  0  0
 60 61  1  0  0  0  0
 60113  1  0  0  0  0
 61 62  1  0  0  0  0
 62 63  1  0  0  0  0
 62114  1  0  0  0  0
 63 64  1  0  0  0  0
 64 65  1  0  0  0  0
 64115  1  0  0  0  0
 65 66  1  0  0  0  0
 66 67  1  0  0  0  0
 66116  1  0  0  0  0
 67 68  1  0  0  0  0
 68 69  1  0  0  0  0
 68117  1  0  0  0  0
 69 70  1  0  0  0  0
 70 71  1  0  0  0  0
 70118  1  0  0  0  0
 71 72  1  0  0  0  0
 72 73  1  0  0  0  0
 72119  1  0  0  0  0
 73 74  1  0  0  0  0
 74 75  1  0  0  0  0
 74120  1  0  0  0  0
 75 76  1  0  0  0  0
 76 77  1  0  0  0  0
 76121  1  0  0  0  0
 77 78  1  0  0  0  0
 78 79  1  0  0  0  0
 78122  1  0  0  0  0
 79 80  1  0  0  0  0
 80 81  1  0  0  0  0
 80123  1  0  0  0  0
 81124  1  0  0  0  0
M  END
$$$$
