
 OpenBabel04232216423D

 29 32  0  0  0  0  0  0  0  0999 V2000
    0.0883   -2.6746    0.6551 C   0  0  0  0  0  0  0  0  0  0  0  0
   -1.1928   -2.1384    0.5818 C   0  0  0  0  0  0  0  0  0  0  0  0
   -2.2743   -2.8928    0.0722 C   0  0  0  0  0  0  0  0  0  0  0  0
   -2.0945   -4.2063   -0.3707 C   0  0  0  0  0  0  0  0  0  0  0  0
   -3.1599   -5.1672   -0.9123 C   0  0  0  0  0  0  0  0  0  0  0  0
   -4.6585   -4.8903   -1.1020 C   0  0  0  0  0  0  0  0  0  0  0  0
   -5.3795   -5.7411   -1.7801 N   0  0  0  0  0  0  0  0  0  0  0  0
   -6.7713   -5.6722   -1.9269 C   0  0  0  0  0  0  0  0  0  0  0  0
   -7.3232   -6.5532   -2.7031 N   0  0  0  0  0  0  0  0  0  0  0  0
   -8.7398   -6.5763   -2.7365 N   0  0  0  0  0  0  0  0  0  0  0  0
   -9.3759   -6.5290   -1.6520 N   0  0  0  0  0  0  0  0  0  0  0  0
   -8.8755   -5.6086   -0.7802 N   0  0  0  0  0  0  0  0  0  0  0  0
   -7.7703   -4.8455   -1.0998 C   0  0  0  0  0  0  0  0  0  0  0  0
   -7.4401   -3.7897   -0.3966 N   0  0  0  0  0  0  0  0  0  0  0  0
   -6.2498   -4.1063    0.1805 C   0  0  0  0  0  0  0  0  0  0  0  0
   -6.1912   -5.0466    1.2134 N   0  0  0  0  0  0  0  0  0  0  0  0
   -7.0166   -5.9978    1.0827 N   0  0  0  0  0  0  0  0  0  0  0  0
   -8.3497   -5.6418    1.4223 N   0  0  0  0  0  0  0  0  0  0  0  0
   -9.2531   -5.8056    0.5442 N   0  0  0  0  0  0  0  0  0  0  0  0
   -5.2314   -3.7949   -0.5420 N   0  0  0  0  0  0  0  0  0  0  0  0
   -0.7774   -4.7209   -0.2935 C   0  0  0  0  0  0  0  0  0  0  0  0
    0.3035   -3.9706    0.2139 C   0  0  0  0  0  0  0  0  0  0  0  0
    0.9203   -2.0872    1.0537 H   0  0  0  0  0  0  0  0  0  0  0  0
   -1.3535   -1.1200    0.9290 H   0  0  0  0  0  0  0  0  0  0  0  0
   -3.2469   -2.4139    0.0413 H   0  0  0  0  0  0  0  0  0  0  0  0
   -3.1392   -6.0346   -0.2367 H   0  0  0  0  0  0  0  0  0  0  0  0
   -2.7987   -5.5217   -1.8883 H   0  0  0  0  0  0  0  0  0  0  0  0
   -0.5650   -5.7332   -0.6275 H   0  0  0  0  0  0  0  0  0  0  0  0
    1.2969   -4.4077    0.2604 H   0  0  0  0  0  0  0  0  0  0  0  0
  1  2  1  0  0  0  0
  1 22  2  0  0  0  0
  1 23  1  0  0  0  0
  2  3  2  0  0  0  0
  2 24  1  0  0  0  0
  3  4  1  0  0  0  0
  3 25  1  0  0  0  0
  4  5  1  0  0  0  0
  4 21  2  0  0  0  0
  5  6  1  0  0  0  0
  5 26  1  0  0  0  0
  5 27  1  0  0  0  0
  6  7  2  0  0  0  0
  6 20  1  0  0  0  0
  7  8  1  0  0  0  0
  8  9  2  0  0  0  0
  8 13  1  0  0  0  0
  9 10  1  0  0  0  0
 10 11  2  0  0  0  0
 11 12  1  0  0  0  0
 12 13  1  0  0  0  0
 12 19  1  0  0  0  0
 13 14  2  0  0  0  0
 14 15  1  0  0  0  0
 15 16  1  0  0  0  0
 15 20  2  0  0  0  0
 16 17  2  0  0  0  0
 17 18  1  0  0  0  0
 18 19  2  0  0  0  0
 21 22  1  0  0  0  0
 21 28  1  0  0  0  0
 22 29  1  0  0  0  0
M  END
$$$$
