
 OpenBabel04232216513D

 50 51  0  0  1  0  0  0  0  0999 V2000
    2.7519    0.1566   -0.2970 C   0  0  0  0  0  0  0  0  0  0  0  0
    4.3175    0.2459   -0.2771 C   0  0  3  0  0  0  0  0  0  0  0  0
    4.8948    1.2991   -1.2509 N   0  0  0  0  0  0  0  0  0  0  0  0
    6.1530    1.6738   -1.2654 N   0  0  0  0  0  0  0  0  0  0  0  0
    6.5148    2.8518   -2.0583 C   0  0  0  0  0  0  0  0  0  0  0  0
    5.2145    3.6470   -2.3957 C   0  0  0  0  0  0  0  0  0  0  0  0
    7.7477    3.5109   -2.4680 C   0  0  0  0  0  0  0  0  0  0  0  0
    7.5263    4.6878   -3.1648 N   0  0  0  0  0  0  0  0  0  0  0  0
    7.4098    5.6827   -2.3510 C   0  0  0  0  0  0  0  0  0  0  0  0
    7.2890    7.0391   -2.8580 C   0  0  0  0  0  0  0  0  0  0  0  0
    8.4855    7.5810   -2.6791 C   0  0  0  0  0  0  0  0  0  0  0  0
    9.0298    8.7035   -3.4475 C   0  0  0  0  0  0  0  0  0  0  0  0
   10.0950    9.2388   -2.9284 N   0  0  0  0  0  0  0  0  0  0  0  0
   11.1794    8.9982   -3.7369 C   0  0  0  0  0  0  0  0  0  0  0  0
   11.7884    7.7970   -3.5550 C   0  0  0  0  0  0  0  0  0  0  0  0
   11.0145    6.4252   -3.8784 C   0  0  0  0  0  0  0  0  0  0  0  0
   11.3961    5.2108   -3.3409 C   0  0  0  0  0  0  0  0  0  0  0  0
   12.9995    5.1602   -3.5281 C   0  0  0  0  0  0  0  0  0  0  0  0
   10.6815    4.0605   -2.6735 N   0  0  0  0  0  0  0  0  0  0  0  0
    9.5392    3.3905   -2.3188 C   0  0  0  0  0  0  0  0  0  0  0  0
    9.7393    2.0371   -1.4773 C   0  0  0  0  0  0  0  0  0  0  0  0
    9.7992    0.8888   -0.7482 C   0  0  0  0  0  0  0  0  0  0  0  0
    8.6745    0.1900   -0.0904 C   0  0  0  0  0  0  0  0  0  0  0  0
    8.6657   -1.0008    0.5464 C   0  0  0  0  0  0  0  0  0  0  0  0
    7.3235   -1.5292    0.9257 C   0  0  0  0  0  0  0  0  0  0  0  0
    6.5241   -1.9628    0.0089 N   0  0  0  0  0  0  0  0  0  0  0  0
    5.2077   -1.7499    0.3615 N   0  0  0  0  0  0  0  0  0  0  0  0
    4.7462   -1.1187   -0.6147 N   0  0  0  0  0  0  0  0  0  0  0  0
    2.2637    1.0189    0.1696 H   0  0  0  0  0  0  0  0  0  0  0  0
    2.3944   -0.7257    0.2695 H   0  0  0  0  0  0  0  0  0  0  0  0
    2.3416    0.0335   -1.3063 H   0  0  0  0  0  0  0  0  0  0  0  0
    4.5911    0.5215    0.7506 H   0  0  0  0  0  0  0  0  0  0  0  0
    4.2733    3.1510   -2.1383 H   0  0  0  0  0  0  0  0  0  0  0  0
    5.1379    3.8657   -3.4623 H   0  0  0  0  0  0  0  0  0  0  0  0
    5.1841    4.5635   -1.7967 H   0  0  0  0  0  0  0  0  0  0  0  0
    7.5195    5.5800   -1.2515 H   0  0  0  0  0  0  0  0  0  0  0  0
    6.4720    7.3865   -3.4628 H   0  0  0  0  0  0  0  0  0  0  0  0
    9.2683    7.0273   -2.1535 H   0  0  0  0  0  0  0  0  0  0  0  0
    8.8565    8.6334   -4.5430 H   0  0  0  0  0  0  0  0  0  0  0  0
   11.0925    9.4538   -4.7239 H   0  0  0  0  0  0  0  0  0  0  0  0
   12.1719    7.6943   -2.5304 H   0  0  0  0  0  0  0  0  0  0  0  0
   11.3722    6.5060   -4.9381 H   0  0  0  0  0  0  0  0  0  0  0  0
   13.5349    4.4093   -2.9528 H   0  0  0  0  0  0  0  0  0  0  0  0
   13.4947    6.1130   -3.2401 H   0  0  0  0  0  0  0  0  0  0  0  0
   13.2835    5.0798   -4.5951 H   0  0  0  0  0  0  0  0  0  0  0  0
    8.8860    2.4191   -0.8864 H   0  0  0  0  0  0  0  0  0  0  0  0
   10.7092    0.2951   -0.7805 H   0  0  0  0  0  0  0  0  0  0  0  0
    7.7059    0.6564   -0.1982 H   0  0  0  0  0  0  0  0  0  0  0  0
    9.5189   -1.6289    0.7323 H   0  0  0  0  0  0  0  0  0  0  0  0
    7.0100   -1.3783    1.9761 H   0  0  0  0  0  0  0  0  0  0  0  0
  1  2  1  0  0  0  0
  1 29  1  0  0  0  0
  1 30  1  0  0  0  0
  1 31  1  0  0  0  0
  2  3  1  0  0  0  0
  2 28  1  0  0  0  0
  2 32  1  0  0  0  0
  3  4  2  3  0  0  0
  4  5  1  0  0  0  0
  5  6  1  0  0  0  0
  5  7  2  3  0  0  0
  6 33  1  0  0  0  0
  6 34  1  0  0  0  0
  6 35  1  0  0  0  0
  7  8  1  0  0  0  0
  7 20  1  0  0  0  0
  8  9  2  3  0  0  0
  9 10  1  0  0  0  0
  9 36  1  0  0  0  0
 10 11  2  3  0  0  0
 10 37  1  0  0  0  0
 11 12  1  0  0  0  0
 11 38  1  0  0  0  0
 12 13  2  3  0  0  0
 12 39  1  0  0  0  0
 13 14  1  0  0  0  0
 14 15  2  3  0  0  0
 14 40  1  0  0  0  0
 15 16  1  0  0  0  0
 15 41  1  0  0  0  0
 16 17  2  3  0  0  0
 16 42  1  0  0  0  0
 17 18  1  0  0  0  0
 17 19  1  0  0  0  0
 18 43  1  0  0  0  0
 18 44  1  0  0  0  0
 18 45  1  0  0  0  0
 19 20  2  3  0  0  0
 20 21  1  0  0  0  0
 21 22  2  3  0  0  0
 21 46  1  0  0  0  0
 22 23  1  0  0  0  0
 22 47  1  0  0  0  0
 23 24  2  3  0  0  0
 23 48  1  0  0  0  0
 24 25  1  0  0  0  0
 24 49  1  0  0  0  0
 25 26  2  3  0  0  0
 25 50  1  0  0  0  0
 26 27  1  0  0  0  0
 27 28  2  3  0  0  0
M  END
$$$$
