
 OpenBabel04232216453D

 62 63  0  0  1  0  0  0  0  0999 V2000
    4.1987    4.3440   -2.9745 C   0  0  0  0  0  0  0  0  0  0  0  0
    4.3681    3.2104   -1.9733 C   0  0  0  0  0  0  0  0  0  0  0  0
    5.6037    2.4174   -2.1351 C   0  0  0  0  0  0  0  0  0  0  0  0
    6.0967    1.4731   -1.3248 C   0  0  0  0  0  0  0  0  0  0  0  0
    7.4170    0.8420   -1.7300 C   0  0  0  0  0  0  0  0  0  0  0  0
    5.4968    0.9272   -0.0459 C   0  0  3  0  0  0  0  0  0  0  0  0
    6.3617    1.2837    1.1938 C   0  0  0  0  0  0  0  0  0  0  0  0
    6.3391    2.7659    1.5802 C   0  0  0  0  0  0  0  0  0  0  0  0
    7.1704    3.0406    2.8378 C   0  0  0  0  0  0  0  0  0  0  0  0
    8.6470    2.6353    2.7317 C   0  0  0  0  0  0  0  0  0  0  0  0
    9.3713    3.2083    1.5126 C   0  0  0  0  0  0  0  0  0  0  0  0
    9.4028    4.7334    1.5297 C   0  0  0  0  0  0  0  0  0  0  0  0
   10.0388    5.2826    0.2603 C   0  0  0  0  0  0  0  0  0  0  0  0
   10.1046    6.8058    0.3118 C   0  0  0  0  0  0  0  0  0  0  0  0
   10.7459    7.3524   -0.9577 C   0  0  0  0  0  0  0  0  0  0  0  0
   10.8476    8.8743   -0.9191 C   0  0  0  0  0  0  0  0  0  0  0  0
   11.4987    9.3988   -2.1863 C   0  0  0  0  0  0  0  0  0  0  0  0
    4.0267    1.1173    0.2895 C   0  0  0  0  0  0  0  0  0  0  0  0
    3.5265    0.2346    1.2903 C   0  0  0  0  0  0  0  0  0  0  0  0
    2.2570    0.3653    1.8492 C   0  0  0  0  0  0  0  0  0  0  0  0
    1.4182    1.3717    1.4023 C   0  0  0  0  0  0  0  0  0  0  0  0
    0.0537    1.5725    1.9848 C   0  0  0  0  0  0  0  0  0  0  0  0
    1.8768    2.2066    0.3775 C   0  0  0  0  0  0  0  0  0  0  0  0
    3.1684    2.1089   -0.1893 C   0  0  0  0  0  0  0  0  0  0  0  0
    3.3883    3.0811   -1.1587 N   0  0  0  0  0  0  0  0  0  0  0  0
    5.1109    4.5345   -3.5456 H   0  0  0  0  0  0  0  0  0  0  0  0
    3.9192    5.2623   -2.4498 H   0  0  0  0  0  0  0  0  0  0  0  0
    3.3988    4.0776   -3.6736 H   0  0  0  0  0  0  0  0  0  0  0  0
    6.1783    2.6955   -3.0152 H   0  0  0  0  0  0  0  0  0  0  0  0
    7.7425    1.1574   -2.7283 H   0  0  0  0  0  0  0  0  0  0  0  0
    7.3345   -0.2486   -1.7503 H   0  0  0  0  0  0  0  0  0  0  0  0
    8.2145    1.1226   -1.0356 H   0  0  0  0  0  0  0  0  0  0  0  0
    5.5900   -0.1648   -0.1726 H   0  0  0  0  0  0  0  0  0  0  0  0
    7.3908    0.9576    1.0109 H   0  0  0  0  0  0  0  0  0  0  0  0
    6.0388    0.6992    2.0650 H   0  0  0  0  0  0  0  0  0  0  0  0
    5.3111    3.0874    1.7827 H   0  0  0  0  0  0  0  0  0  0  0  0
    6.6932    3.3839    0.7484 H   0  0  0  0  0  0  0  0  0  0  0  0
    6.7251    2.5093    3.6897 H   0  0  0  0  0  0  0  0  0  0  0  0
    7.0979    4.1065    3.0808 H   0  0  0  0  0  0  0  0  0  0  0  0
    8.7267    1.5417    2.7080 H   0  0  0  0  0  0  0  0  0  0  0  0
    9.1654    2.9532    3.6433 H   0  0  0  0  0  0  0  0  0  0  0  0
    8.9077    2.8523    0.5886 H   0  0  0  0  0  0  0  0  0  0  0  0
   10.3988    2.8221    1.4976 H   0  0  0  0  0  0  0  0  0  0  0  0
    9.9612    5.0744    2.4088 H   0  0  0  0  0  0  0  0  0  0  0  0
    8.3893    5.1419    1.6109 H   0  0  0  0  0  0  0  0  0  0  0  0
    9.4495    4.9690   -0.6108 H   0  0  0  0  0  0  0  0  0  0  0  0
   11.0467    4.8685    0.1379 H   0  0  0  0  0  0  0  0  0  0  0  0
   10.6838    7.1207    1.1885 H   0  0  0  0  0  0  0  0  0  0  0  0
    9.0944    7.2184    0.4260 H   0  0  0  0  0  0  0  0  0  0  0  0
   10.1547    7.0432   -1.8286 H   0  0  0  0  0  0  0  0  0  0  0  0
   11.7466    6.9192   -1.0766 H   0  0  0  0  0  0  0  0  0  0  0  0
   11.4368    9.1877   -0.0495 H   0  0  0  0  0  0  0  0  0  0  0  0
    9.8488    9.3133   -0.8122 H   0  0  0  0  0  0  0  0  0  0  0  0
   12.5087    8.9917   -2.3023 H   0  0  0  0  0  0  0  0  0  0  0  0
   11.5709   10.4896   -2.1538 H   0  0  0  0  0  0  0  0  0  0  0  0
   10.9142    9.1197   -3.0692 H   0  0  0  0  0  0  0  0  0  0  0  0
    4.1660   -0.5562    1.6824 H   0  0  0  0  0  0  0  0  0  0  0  0
    1.9496   -0.3085    2.6448 H   0  0  0  0  0  0  0  0  0  0  0  0
   -0.1126    0.9199    2.8486 H   0  0  0  0  0  0  0  0  0  0  0  0
   -0.7117    1.3489    1.2359 H   0  0  0  0  0  0  0  0  0  0  0  0
   -0.0648    2.6071    2.3242 H   0  0  0  0  0  0  0  0  0  0  0  0
    1.2179    2.9911    0.0054 H   0  0  0  0  0  0  0  0  0  0  0  0
  1  2  1  0  0  0  0
  1 26  1  0  0  0  0
  1 27  1  0  0  0  0
  1 28  1  0  0  0  0
  2  3  1  0  0  0  0
  2 25  2  0  0  0  0
  3  4  2  0  0  0  0
  3 29  1  0  0  0  0
  4  5  1  0  0  0  0
  4  6  1  0  0  0  0
  5 30  1  0  0  0  0
  5 31  1  0  0  0  0
  5 32  1  0  0  0  0
  6  7  1  0  0  0  0
  6 18  1  0  0  0  0
  6 33  1  0  0  0  0
  7  8  1  0  0  0  0
  7 34  1  0  0  0  0
  7 35  1  0  0  0  0
  8  9  1  0  0  0  0
  8 36  1  0  0  0  0
  8 37  1  0  0  0  0
  9 10  1  0  0  0  0
  9 38  1  0  0  0  0
  9 39  1  0  0  0  0
 10 11  1  0  0  0  0
 10 40  1  0  0  0  0
 10 41  1  0  0  0  0
 11 12  1  0  0  0  0
 11 42  1  0  0  0  0
 11 43  1  0  0  0  0
 12 13  1  0  0  0  0
 12 44  1  0  0  0  0
 12 45  1  0  0  0  0
 13 14  1  0  0  0  0
 13 46  1  0  0  0  0
 13 47  1  0  0  0  0
 14 15  1  0  0  0  0
 14 48  1  0  0  0  0
 14 49  1  0  0  0  0
 15 16  1  0  0  0  0
 15 50  1  0  0  0  0
 15 51  1  0  0  0  0
 16 17  1  0  0  0  0
 16 52  1  0  0  0  0
 16 53  1  0  0  0  0
 17 54  1  0  0  0  0
 17 55  1  0  0  0  0
 17 56  1  0  0  0  0
 18 19  1  0  0  0  0
 18 24  2  0  0  0  0
 19 20  2  0  0  0  0
 19 57  1  0  0  0  0
 20 21  1  0  0  0  0
 20 58  1  0  0  0  0
 21 22  1  0  0  0  0
 21 23  2  0  0  0  0
 22 59  1  0  0  0  0
 22 60  1  0  0  0  0
 22 61  1  0  0  0  0
 23 24  1  0  0  0  0
 23 62  1  0  0  0  0
 24 25  1  0  0  0  0
M  END
$$$$
