
 OpenBabel04232217023D

181181  0  0  1  0  0  0  0  0999 V2000
    0.0717   15.4449  -12.4759 O   0  0  0  0  0  0  0  0  0  0  0  0
   -0.0137   14.1669  -11.7910 O   0  0  0  0  0  0  0  0  0  0  0  0
    0.6198   13.2179  -12.6706 C   0  0  3  0  0  0  0  0  0  0  0  0
    0.6575   11.8022  -12.1530 C   0  0  0  0  0  0  0  0  0  0  0  0
   -0.2719   12.1664  -13.2688 C   0  0  3  0  0  0  0  0  0  0  0  0
    0.1143   11.6876  -14.5611 O   0  0  0  0  0  0  0  0  0  0  0  0
   -0.9138   12.1949  -15.4430 O   0  0  0  0  0  0  0  0  0  0  0  0
   -0.6330   11.8044  -16.7976 O   0  0  0  0  0  0  0  0  0  0  0  0
   -0.6119   10.3646  -16.9038 O   0  0  0  0  0  0  0  0  0  0  0  0
   -0.2269   10.0028  -18.2373 O   0  0  0  0  0  0  0  0  0  0  0  0
   -0.1689    8.5947  -18.2527 C   0  0  0  0  0  0  0  0  0  0  0  0
    0.1055    8.2210  -19.5923 O   0  0  0  0  0  0  0  0  0  0  0  0
    0.2794    6.7936  -19.5684 O   0  0  0  0  0  0  0  0  0  0  0  0
    0.4759    6.4382  -20.9308 C   0  0  0  0  0  0  0  0  0  0  0  0
    0.5560    5.0342  -21.0706 O   0  0  0  0  0  0  0  0  0  0  0  0
   -0.6590    4.4192  -20.6693 C   0  0  0  0  0  0  0  0  0  0  0  0
   -0.5371    3.0174  -20.7650 O   0  0  0  0  0  0  0  0  0  0  0  0
   -1.8162    2.5345  -20.3058 O   0  0  0  0  0  0  0  0  0  0  0  0
   -1.7203    1.1238  -20.3787 C   0  0  0  0  0  0  0  0  0  0  0  0
   -2.9349    0.5770  -19.9192 O   0  0  0  0  0  0  0  0  0  0  0  0
   -2.7525   -0.8607  -19.9748 O   0  0  0  0  0  0  0  0  0  0  0  0
   -4.0354   -1.3982  -19.6635 C   0  0  0  0  0  0  0  0  0  0  0  0
   -5.0797   -0.9422  -20.5229 O   0  0  0  0  0  0  0  0  0  0  0  0
   -4.8146   -1.2918  -21.8740 C   0  0  0  0  0  0  0  0  0  0  0  0
   -5.9244   -0.7296  -22.7371 C   0  0  0  0  0  0  0  0  0  0  0  0
   -5.6856   -1.1134  -24.1860 C   0  0  0  0  0  0  0  0  0  0  0  0
   -6.7961   -0.5714  -25.0652 C   0  0  0  0  0  0  0  0  0  0  0  0
   -6.5519   -0.9731  -26.5086 C   0  0  0  0  0  0  0  0  0  0  0  0
   -7.6634   -0.4353  -27.3895 C   0  0  0  0  0  0  0  0  0  0  0  0
   -7.4183   -0.8361  -28.8320 C   0  0  0  0  0  0  0  0  0  0  0  0
   -8.5307   -0.2980  -29.7118 C   0  0  0  0  0  0  0  0  0  0  0  0
   -8.2881   -0.7004  -31.1534 C   0  0  0  0  0  0  0  0  0  0  0  0
   -9.4028   -0.1681  -32.0335 C   0  0  0  0  0  0  0  0  0  0  0  0
   -9.1554   -0.5632  -33.4760 C   0  0  0  0  0  0  0  0  0  0  0  0
  -10.2656   -0.0203  -34.3541 C   0  0  0  0  0  0  0  0  0  0  0  0
  -10.0226   -0.4186  -35.7964 C   0  0  0  0  0  0  0  0  0  0  0  0
  -11.1349    0.1222  -36.6751 C   0  0  0  0  0  0  0  0  0  0  0  0
  -10.8914   -0.2798  -38.1165 C   0  0  0  0  0  0  0  0  0  0  0  0
  -12.0026    0.2590  -38.9970 C   0  0  0  0  0  0  0  0  0  0  0  0
  -11.7566   -0.1370  -40.4375 C   0  0  0  0  0  0  0  0  0  0  0  0
  -12.8752    0.4044  -41.3191 C   0  0  0  0  0  0  0  0  0  0  0  0
  -12.6194    0.0058  -42.7552 C   0  0  0  0  0  0  0  0  0  0  0  0
  -13.7309    0.5437  -43.6534 C   0  0  0  0  0  0  0  0  0  0  0  0
  -13.4872    0.1484  -45.0793 C   0  0  0  0  0  0  0  0  0  0  0  0
  -14.5935    0.6903  -45.9599 C   0  0  0  0  0  0  0  0  0  0  0  0
  -14.3517    0.2904  -47.4035 C   0  0  0  0  0  0  0  0  0  0  0  0
  -15.4623    0.8325  -48.2850 C   0  0  0  0  0  0  0  0  0  0  0  0
  -15.2176    0.4330  -49.7279 C   0  0  0  0  0  0  0  0  0  0  0  0
  -16.3289    0.9737  -50.6075 C   0  0  0  0  0  0  0  0  0  0  0  0
  -16.0831    0.5758  -52.0502 C   0  0  0  0  0  0  0  0  0  0  0  0
  -17.1944    1.1165  -52.9294 C   0  0  0  0  0  0  0  0  0  0  0  0
  -16.9484    0.7189  -54.3721 C   0  0  0  0  0  0  0  0  0  0  0  0
  -18.0586    1.2611  -55.2515 C   0  0  0  0  0  0  0  0  0  0  0  0
  -17.8126    0.8633  -56.6941 C   0  0  0  0  0  0  0  0  0  0  0  0
  -18.9229    1.4059  -57.5730 C   0  0  0  0  0  0  0  0  0  0  0  0
  -18.6781    1.0066  -59.0149 C   0  0  0  0  0  0  0  0  0  0  0  0
  -19.7883    1.5488  -59.8940 C   0  0  0  0  0  0  0  0  0  0  0  0
  -19.5408    1.1455  -61.3342 C   0  0  0  0  0  0  0  0  0  0  0  0
  -20.6489    1.6813  -62.2181 C   0  0  0  0  0  0  0  0  0  0  0  0
  -20.3965    1.2697  -63.6569 C   0  0  0  0  0  0  0  0  0  0  0  0
  -21.5105    1.7951  -64.5376 C   0  0  0  0  0  0  0  0  0  0  0  0
  -21.2881    1.3729  -65.9859 C   0  0  0  0  0  0  0  0  0  0  0  0
  -22.4299    1.8596  -66.8531 C   0  0  0  0  0  0  0  0  0  0  0  0
  -22.4989    3.2593  -66.6963 O   0  0  0  0  0  0  0  0  0  0  0  0
  -23.5150    3.8295  -67.4964 C   0  0  0  0  0  0  0  0  0  0  0  0
  -23.5195    5.2338  -67.3475 O   0  0  0  0  0  0  0  0  0  0  0  0
  -22.2794    5.7700  -67.7616 C   0  0  0  0  0  0  0  0  0  0  0  0
  -22.3172    7.1592  -67.6026 O   0  0  0  0  0  0  0  0  0  0  0  0
  -21.0057    7.5446  -67.9978 O   0  0  0  0  0  0  0  0  0  0  0  0
  -20.8900    8.9431  -67.8663 O   0  0  0  0  0  0  0  0  0  0  0  0
  -19.6291    9.3435  -68.3657 O   0  0  0  0  0  0  0  0  0  0  0  0
  -19.5478   10.7471  -68.2372 O   0  0  0  0  0  0  0  0  0  0  0  0
  -18.2684   11.1825  -68.6478 O   0  0  0  0  0  0  0  0  0  0  0  0
  -18.2349   12.5934  -68.5201 O   0  0  0  0  0  0  0  0  0  0  0  0
  -16.9838   13.0761  -68.9760 O   0  0  0  0  0  0  0  0  0  0  0  0
  -16.9585   14.4808  -68.8190 O   0  0  0  0  0  0  0  0  0  0  0  0
  -15.7063   14.9566  -69.2603 O   0  0  0  0  0  0  0  0  0  0  0  0
  -15.6326   16.3846  -69.1283 O   0  0  0  0  0  0  0  0  0  0  0  0
  -14.3383   16.6810  -69.6081 C   0  0  0  0  0  0  0  0  0  0  0  0
   -0.1449   15.9848  -11.6959 H   0  0  0  0  0  0  0  0  0  0  0  0
    1.4627   13.5499  -13.2698 H   0  0  0  0  0  0  0  0  0  0  0  0
    0.2028   11.5901  -11.1937 H   0  0  0  0  0  0  0  0  0  0  0  0
    1.5203   11.1924  -12.3892 H   0  0  0  0  0  0  0  0  0  0  0  0
   -1.3297   12.1843  -13.0310 H   0  0  0  0  0  0  0  0  0  0  0  0
   -1.1287    8.1631  -17.9416 H   0  0  0  0  0  0  0  0  0  0  0  0
    0.6306    8.2393  -17.5913 H   0  0  0  0  0  0  0  0  0  0  0  0
    1.4231    6.8697  -21.2661 H   0  0  0  0  0  0  0  0  0  0  0  0
   -0.3349    6.8338  -21.5562 H   0  0  0  0  0  0  0  0  0  0  0  0
   -1.4797    4.7622  -21.3109 H   0  0  0  0  0  0  0  0  0  0  0  0
   -0.8871    4.6761  -19.6259 H   0  0  0  0  0  0  0  0  0  0  0  0
   -0.9014    0.7860  -19.7350 H   0  0  0  0  0  0  0  0  0  0  0  0
   -1.5350    0.8283  -21.4177 H   0  0  0  0  0  0  0  0  0  0  0  0
   -4.2882   -1.1069  -18.6398 H   0  0  0  0  0  0  0  0  0  0  0  0
   -3.9755   -2.4895  -19.7043 H   0  0  0  0  0  0  0  0  0  0  0  0
   -4.7719   -2.3825  -21.9662 H   0  0  0  0  0  0  0  0  0  0  0  0
   -3.8565   -0.8696  -22.2002 H   0  0  0  0  0  0  0  0  0  0  0  0
   -5.9647    0.3620  -22.6297 H   0  0  0  0  0  0  0  0  0  0  0  0
   -6.8942   -1.1057  -22.3897 H   0  0  0  0  0  0  0  0  0  0  0  0
   -5.6386   -2.2056  -24.2783 H   0  0  0  0  0  0  0  0  0  0  0  0
   -4.7185   -0.7199  -24.5238 H   0  0  0  0  0  0  0  0  0  0  0  0
   -6.8390    0.5215  -24.9832 H   0  0  0  0  0  0  0  0  0  0  0  0
   -7.7638   -0.9620  -24.7276 H   0  0  0  0  0  0  0  0  0  0  0  0
   -6.5069   -2.0663  -26.5904 H   0  0  0  0  0  0  0  0  0  0  0  0
   -5.5842   -0.5829  -26.8475 H   0  0  0  0  0  0  0  0  0  0  0  0
   -7.7096    0.6576  -27.3076 H   0  0  0  0  0  0  0  0  0  0  0  0
   -8.6305   -0.8275  -27.0518 H   0  0  0  0  0  0  0  0  0  0  0  0
   -7.3723   -1.9293  -28.9138 H   0  0  0  0  0  0  0  0  0  0  0  0
   -6.4510   -0.4444  -29.1702 H   0  0  0  0  0  0  0  0  0  0  0  0
   -8.5754    0.7952  -29.6308 H   0  0  0  0  0  0  0  0  0  0  0  0
   -9.4981   -0.6886  -29.3723 H   0  0  0  0  0  0  0  0  0  0  0  0
   -8.2401   -1.7934  -31.2349 H   0  0  0  0  0  0  0  0  0  0  0  0
   -7.3226   -0.3068  -31.4941 H   0  0  0  0  0  0  0  0  0  0  0  0
   -9.4555    0.9246  -31.9488 H   0  0  0  0  0  0  0  0  0  0  0  0
  -10.3687   -0.5658  -31.6977 H   0  0  0  0  0  0  0  0  0  0  0  0
   -9.1075   -1.6551  -33.5635 H   0  0  0  0  0  0  0  0  0  0  0  0
   -8.1886   -0.1688  -33.8108 H   0  0  0  0  0  0  0  0  0  0  0  0
  -10.3088    1.0729  -34.2703 H   0  0  0  0  0  0  0  0  0  0  0  0
  -11.2348   -0.4091  -34.0167 H   0  0  0  0  0  0  0  0  0  0  0  0
   -9.9781   -1.5115  -35.8795 H   0  0  0  0  0  0  0  0  0  0  0  0
   -9.0546   -0.0282  -36.1349 H   0  0  0  0  0  0  0  0  0  0  0  0
  -11.1796    1.2152  -36.5923 H   0  0  0  0  0  0  0  0  0  0  0  0
  -12.1021   -0.2690  -36.3351 H   0  0  0  0  0  0  0  0  0  0  0  0
  -10.8472   -1.3728  -38.1958 H   0  0  0  0  0  0  0  0  0  0  0  0
   -9.9244    0.1093  -38.4553 H   0  0  0  0  0  0  0  0  0  0  0  0
  -12.0476    1.3532  -38.9152 H   0  0  0  0  0  0  0  0  0  0  0  0
  -12.9724   -0.1301  -38.6606 H   0  0  0  0  0  0  0  0  0  0  0  0
  -11.7124   -1.2348  -40.5204 H   0  0  0  0  0  0  0  0  0  0  0  0
  -10.7888    0.2527  -40.7768 H   0  0  0  0  0  0  0  0  0  0  0  0
  -12.9071    1.4952  -41.2283 H   0  0  0  0  0  0  0  0  0  0  0  0
  -13.8304    0.0139  -40.9786 H   0  0  0  0  0  0  0  0  0  0  0  0
  -12.5726   -1.0980  -42.8430 H   0  0  0  0  0  0  0  0  0  0  0  0
  -11.6478    0.3921  -43.0964 H   0  0  0  0  0  0  0  0  0  0  0  0
  -13.7688    1.6404  -43.5501 H   0  0  0  0  0  0  0  0  0  0  0  0
  -14.6961    0.1548  -43.2965 H   0  0  0  0  0  0  0  0  0  0  0  0
  -13.4434   -0.9459  -45.1640 H   0  0  0  0  0  0  0  0  0  0  0  0
  -12.5159    0.5359  -45.4182 H   0  0  0  0  0  0  0  0  0  0  0  0
  -14.6366    1.7845  -45.8797 H   0  0  0  0  0  0  0  0  0  0  0  0
  -15.5648    0.3032  -45.6248 H   0  0  0  0  0  0  0  0  0  0  0  0
  -14.3098   -0.8027  -47.4881 H   0  0  0  0  0  0  0  0  0  0  0  0
  -13.3836    0.6790  -47.7433 H   0  0  0  0  0  0  0  0  0  0  0  0
  -15.5058    1.9254  -48.2024 H   0  0  0  0  0  0  0  0  0  0  0  0
  -16.4308    0.4426  -47.9486 H   0  0  0  0  0  0  0  0  0  0  0  0
  -15.1731   -0.6599  -49.8115 H   0  0  0  0  0  0  0  0  0  0  0  0
  -14.2499    0.8241  -50.0656 H   0  0  0  0  0  0  0  0  0  0  0  0
  -16.3746    2.0665  -50.5234 H   0  0  0  0  0  0  0  0  0  0  0  0
  -17.2966    0.5815  -50.2709 H   0  0  0  0  0  0  0  0  0  0  0  0
  -16.0375   -0.5169  -52.1345 H   0  0  0  0  0  0  0  0  0  0  0  0
  -15.1155    0.9681  -52.3868 H   0  0  0  0  0  0  0  0  0  0  0  0
  -17.2400    2.2093  -52.8451 H   0  0  0  0  0  0  0  0  0  0  0  0
  -18.1621    0.7243  -52.5931 H   0  0  0  0  0  0  0  0  0  0  0  0
  -16.9041   -0.3740  -54.4567 H   0  0  0  0  0  0  0  0  0  0  0  0
  -15.9802    1.1100  -54.7083 H   0  0  0  0  0  0  0  0  0  0  0  0
  -18.1029    2.3540  -55.1671 H   0  0  0  0  0  0  0  0  0  0  0  0
  -19.0269    0.8701  -54.9155 H   0  0  0  0  0  0  0  0  0  0  0  0
  -17.7686   -0.2295  -56.7787 H   0  0  0  0  0  0  0  0  0  0  0  0
  -16.8444    1.2542  -57.0304 H   0  0  0  0  0  0  0  0  0  0  0  0
  -18.9662    2.4988  -57.4897 H   0  0  0  0  0  0  0  0  0  0  0  0
  -19.8914    1.0158  -57.2364 H   0  0  0  0  0  0  0  0  0  0  0  0
  -18.6350   -0.0865  -59.0986 H   0  0  0  0  0  0  0  0  0  0  0  0
  -17.7097    1.3961  -59.3525 H   0  0  0  0  0  0  0  0  0  0  0  0
  -19.8312    2.6419  -59.8126 H   0  0  0  0  0  0  0  0  0  0  0  0
  -20.7571    1.1598  -59.5570 H   0  0  0  0  0  0  0  0  0  0  0  0
  -19.4963    0.0524  -61.4142 H   0  0  0  0  0  0  0  0  0  0  0  0
  -18.5727    1.5359  -61.6712 H   0  0  0  0  0  0  0  0  0  0  0  0
  -20.6947    2.7749  -62.1407 H   0  0  0  0  0  0  0  0  0  0  0  0
  -21.6182    1.2928  -61.8812 H   0  0  0  0  0  0  0  0  0  0  0  0
  -20.3458    0.1773  -63.7322 H   0  0  0  0  0  0  0  0  0  0  0  0
  -19.4320    1.6676  -63.9957 H   0  0  0  0  0  0  0  0  0  0  0  0
  -21.5450    2.8893  -64.4523 H   0  0  0  0  0  0  0  0  0  0  0  0
  -22.4783    1.4171  -64.1863 H   0  0  0  0  0  0  0  0  0  0  0  0
  -21.2115    0.2846  -66.0649 H   0  0  0  0  0  0  0  0  0  0  0  0
  -20.3425    1.8062  -66.3376 H   0  0  0  0  0  0  0  0  0  0  0  0
  -23.3782    1.4214  -66.5292 H   0  0  0  0  0  0  0  0  0  0  0  0
  -22.2427    1.6112  -67.9017 H   0  0  0  0  0  0  0  0  0  0  0  0
  -24.4896    3.4671  -67.1657 H   0  0  0  0  0  0  0  0  0  0  0  0
  -23.3642    3.5791  -68.5526 H   0  0  0  0  0  0  0  0  0  0  0  0
  -22.0881    5.5316  -68.8162 H   0  0  0  0  0  0  0  0  0  0  0  0
  -21.4555    5.3702  -67.1516 H   0  0  0  0  0  0  0  0  0  0  0  0
  -14.1878   17.7561  -69.5441 H   0  0  0  0  0  0  0  0  0  0  0  0
  -14.2578   16.3488  -70.6472 H   0  0  0  0  0  0  0  0  0  0  0  0
  -13.6006   16.1584  -68.9925 H   0  0  0  0  0  0  0  0  0  0  0  0
  1  2  1  0  0  0  0
  1 80  1  0  0  0  0
  2  3  1  0  0  0  0
  3  4  1  0  0  0  0
  3  5  1  0  0  0  0
  3 81  1  0  0  0  0
  4  5  1  0  0  0  0
  4 82  1  0  0  0  0
  4 83  1  0  0  0  0
  5  6  1  0  0  0  0
  5 84  1  0  0  0  0
  6  7  1  0  0  0  0
  7  8  1  0  0  0  0
  8  9  1  0  0  0  0
  9 10  1  0  0  0  0
 10 11  1  0  0  0  0
 11 12  1  0  0  0  0
 11 85  1  0  0  0  0
 11 86  1  0  0  0  0
 12 13  1  0  0  0  0
 13 14  1  0  0  0  0
 14 15  1  0  0  0  0
 14 87  1  0  0  0  0
 14 88  1  0  0  0  0
 15 16  1  0  0  0  0
 16 17  1  0  0  0  0
 16 89  1  0  0  0  0
 16 90  1  0  0  0  0
 17 18  1  0  0  0  0
 18 19  1  0  0  0  0
 19 20  1  0  0  0  0
 19 91  1  0  0  0  0
 19 92  1  0  0  0  0
 20 21  1  0  0  0  0
 21 22  1  0  0  0  0
 22 23  1  0  0  0  0
 22 93  1  0  0  0  0
 22 94  1  0  0  0  0
 23 24  1  0  0  0  0
 24 25  1  0  0  0  0
 24 95  1  0  0  0  0
 24 96  1  0  0  0  0
 25 26  1  0  0  0  0
 25 97  1  0  0  0  0
 25 98  1  0  0  0  0
 26 27  1  0  0  0  0
 26 99  1  0  0  0  0
 26100  1  0  0  0  0
 27 28  1  0  0  0  0
 27101  1  0  0  0  0
 27102  1  0  0  0  0
 28 29  1  0  0  0  0
 28103  1  0  0  0  0
 28104  1  0  0  0  0
 29 30  1  0  0  0  0
 29105  1  0  0  0  0
 29106  1  0  0  0  0
 30 31  1  0  0  0  0
 30107  1  0  0  0  0
 30108  1  0  0  0  0
 31 32  1  0  0  0  0
 31109  1  0  0  0  0
 31110  1  0  0  0  0
 32 33  1  0  0  0  0
 32111  1  0  0  0  0
 32112  1  0  0  0  0
 33 34  1  0  0  0  0
 33113  1  0  0  0  0
 33114  1  0  0  0  0
 34 35  1  0  0  0  0
 34115  1  0  0  0  0
 34116  1  0  0  0  0
 35 36  1  0  0  0  0
 35117  1  0  0  0  0
 35118  1  0  0  0  0
 36 37  1  0  0  0  0
 36119  1  0  0  0  0
 36120  1  0  0  0  0
 37 38  1  0  0  0  0
 37121  1  0  0  0  0
 37122  1  0  0  0  0
 38 39  1  0  0  0  0
 38123  1  0  0  0  0
 38124  1  0  0  0  0
 39 40  1  0  0  0  0
 39125  1  0  0  0  0
 39126  1  0  0  0  0
 40 41  1  0  0  0  0
 40127  1  0  0  0  0
 40128  1  0  0  0  0
 41 42  1  0  0  0  0
 41129  1  0  0  0  0
 41130  1  0  0  0  0
 42 43  1  0  0  0  0
 42131  1  0  0  0  0
 42132  1  0  0  0  0
 43 44  1  0  0  0  0
 43133  1  0  0  0  0
 43134  1  0  0  0  0
 44 45  1  0  0  0  0
 44135  1  0  0  0  0
 44136  1  0  0  0  0
 45 46  1  0  0  0  0
 45137  1  0  0  0  0
 45138  1  0  0  0  0
 46 47  1  0  0  0  0
 46139  1  0  0  0  0
 46140  1  0  0  0  0
 47 48  1  0  0  0  0
 47141  1  0  0  0  0
 47142  1  0  0  0  0
 48 49  1  0  0  0  0
 48143  1  0  0  0  0
 48144  1  0  0  0  0
 49 50  1  0  0  0  0
 49145  1  0  0  0  0
 49146  1  0  0  0  0
 50 51  1  0  0  0  0
 50147  1  0  0  0  0
 50148  1  0  0  0  0
 51 52  1  0  0  0  0
 51149  1  0  0  0  0
 51150  1  0  0  0  0
 52 53  1  0  0  0  0
 52151  1  0  0  0  0
 52152  1  0  0  0  0
 53 54  1  0  0  0  0
 53153  1  0  0  0  0
 53154  1  0  0  0  0
 54 55  1  0  0  0  0
 54155  1  0  0  0  0
 54156  1  0  0  0  0
 55 56  1  0  0  0  0
 55157  1  0  0  0  0
 55158  1  0  0  0  0
 56 57  1  0  0  0  0
 56159  1  0  0  0  0
 56160  1  0  0  0  0
 57 58  1  0  0  0  0
 57161  1  0  0  0  0
 57162  1  0  0  0  0
 58 59  1  0  0  0  0
 58163  1  0  0  0  0
 58164  1  0  0  0  0
 59 60  1  0  0  0  0
 59165  1  0  0  0  0
 59166  1  0  0  0  0
 60 61  1  0  0  0  0
 60167  1  0  0  0  0
 60168  1  0  0  0  0
 61 62  1  0  0  0  0
 61169  1  0  0  0  0
 61170  1  0  0  0  0
 62 63  1  0  0  0  0
 62171  1  0  0  0  0
 62172  1  0  0  0  0
 63 64  1  0  0  0  0
 63173  1  0  0  0  0
 63174  1  0  0  0  0
 64 65  1  0  0  0  0
 65 66  1  0  0  0  0
 65175  1  0  0  0  0
 65176  1  0  0  0  0
 66 67  1  0  0  0  0
 67 68  1  0  0  0  0
 67177  1  0  0  0  0
 67178  1  0  0  0  0
 68 69  1  0  0  0  0
 69 70  1  0  0  0  0
 70 71  1  0  0  0  0
 71 72  1  0  0  0  0
 72 73  1  0  0  0  0
 73 74  1  0  0  0  0
 74 75  1  0  0  0  0
 75 76  1  0  0  0  0
 76 77  1  0  0  0  0
 77 78  1  0  0  0  0
 78 79  1  0  0  0  0
 79179  1  0  0  0  0
 79180  1  0  0  0  0
 79181  1  0  0  0  0
M  END
$$$$
