
 OpenBabel04232216483D

 55 56  0  0  0  0  0  0  0  0999 V2000
    4.0490   -0.6302    0.2979 C   0  0  0  0  0  0  0  0  0  0  0  0
    4.8258    0.6476    0.4914 C   0  0  0  0  0  0  0  0  0  0  0  0
    4.0974    1.7429    0.1774 C   0  0  0  0  0  0  0  0  0  0  0  0
    4.3157    3.0587    0.7036 C   0  0  0  0  0  0  0  0  0  0  0  0
    3.8654    3.3429    1.9579 C   0  0  0  0  0  0  0  0  0  0  0  0
    3.0695    2.4302    2.6438 N   0  0  0  0  0  0  0  0  0  0  0  0
    1.6523    2.4251    2.4722 C   0  0  0  0  0  0  0  0  0  0  0  0
    1.1023    1.3022    3.3335 C   0  0  0  0  0  0  0  0  0  0  0  0
   -0.4031    1.3135    3.1999 C   0  0  0  0  0  0  0  0  0  0  0  0
   -1.0399    0.2897    4.1178 C   0  0  0  0  0  0  0  0  0  0  0  0
   -2.5473    0.3690    3.9820 C   0  0  0  0  0  0  0  0  0  0  0  0
    4.5863    4.2484    2.7243 N   0  0  0  0  0  0  0  0  0  0  0  0
    5.8972    3.9673    2.8335 N   0  0  0  0  0  0  0  0  0  0  0  0
    6.0151    2.7478    3.0928 N   0  0  0  0  0  0  0  0  0  0  0  0
    7.2055    2.3565    2.5881 N   0  0  0  0  0  0  0  0  0  0  0  0
    8.3797    2.9939    3.0812 C   0  0  0  0  0  0  0  0  0  0  0  0
    8.6058    3.7070    4.2243 C   0  0  0  0  0  0  0  0  0  0  0  0
    8.0369    4.6861    5.2026 C   0  0  0  0  0  0  0  0  0  0  0  0
    6.9290    5.4041    4.9977 C   0  0  0  0  0  0  0  0  0  0  0  0
    5.8818    5.8609    5.9189 C   0  0  0  0  0  0  0  0  0  0  0  0
    4.7117    5.1630    5.8337 C   0  0  0  0  0  0  0  0  0  0  0  0
    3.7671    5.5273    4.7635 C   0  0  0  0  0  0  0  0  0  0  0  0
    2.4902    6.2301    5.1413 C   0  0  0  0  0  0  0  0  0  0  0  0
    3.9402    5.2327    3.4564 C   0  0  0  0  0  0  0  0  0  0  0  0
    7.1638    1.2591    1.6776 C   0  0  0  0  0  0  0  0  0  0  0  0
    6.2609    0.5764    0.9222 C   0  0  0  0  0  0  0  0  0  0  0  0
    3.0665   -0.5448    0.7913 H   0  0  0  0  0  0  0  0  0  0  0  0
    4.5186   -1.5237    0.7095 H   0  0  0  0  0  0  0  0  0  0  0  0
    3.8433   -0.7896   -0.7681 H   0  0  0  0  0  0  0  0  0  0  0  0
    3.0904    1.6180   -0.2196 H   0  0  0  0  0  0  0  0  0  0  0  0
    5.1026    3.6565    0.2418 H   0  0  0  0  0  0  0  0  0  0  0  0
    3.3372    2.4916    3.6247 H   0  0  0  0  0  0  0  0  0  0  0  0
    1.3892    2.2573    1.4202 H   0  0  0  0  0  0  0  0  0  0  0  0
    1.2449    3.3868    2.7831 H   0  0  0  0  0  0  0  0  0  0  0  0
    1.3995    1.4486    4.3806 H   0  0  0  0  0  0  0  0  0  0  0  0
    1.5172    0.3339    3.0230 H   0  0  0  0  0  0  0  0  0  0  0  0
   -0.6747    1.1105    2.1566 H   0  0  0  0  0  0  0  0  0  0  0  0
   -0.7790    2.3151    3.4435 H   0  0  0  0  0  0  0  0  0  0  0  0
   -0.7476    0.4833    5.1564 H   0  0  0  0  0  0  0  0  0  0  0  0
   -0.6887   -0.7157    3.8596 H   0  0  0  0  0  0  0  0  0  0  0  0
   -2.9057    1.3689    4.2500 H   0  0  0  0  0  0  0  0  0  0  0  0
   -3.0271   -0.3595    4.6372 H   0  0  0  0  0  0  0  0  0  0  0  0
   -2.8499    0.1661    2.9495 H   0  0  0  0  0  0  0  0  0  0  0  0
    9.2311    2.7592    2.4681 H   0  0  0  0  0  0  0  0  0  0  0  0
    8.0350    2.9920    4.8746 H   0  0  0  0  0  0  0  0  0  0  0  0
    8.4963    4.6613    6.1905 H   0  0  0  0  0  0  0  0  0  0  0  0
    6.6040    5.5509    3.9826 H   0  0  0  0  0  0  0  0  0  0  0  0
    5.8037    6.9490    5.8263 H   0  0  0  0  0  0  0  0  0  0  0  0
    4.7337    4.0832    5.9831 H   0  0  0  0  0  0  0  0  0  0  0  0
    2.6714    7.1184    5.7457 H   0  0  0  0  0  0  0  0  0  0  0  0
    1.8368    5.5444    5.6987 H   0  0  0  0  0  0  0  0  0  0  0  0
    1.9184    6.5348    4.2528 H   0  0  0  0  0  0  0  0  0  0  0  0
    4.1592    6.1436    2.8899 H   0  0  0  0  0  0  0  0  0  0  0  0
    8.1900    0.8682    1.6033 H   0  0  0  0  0  0  0  0  0  0  0  0
    6.7060   -0.2733    0.3942 H   0  0  0  0  0  0  0  0  0  0  0  0
  1  2  1  0  0  0  0
  1 27  1  0  0  0  0
  1 28  1  0  0  0  0
  1 29  1  0  0  0  0
  2  3  2  3  0  0  0
  2 26  1  0  0  0  0
  3  4  1  0  0  0  0
  3 30  1  0  0  0  0
  4  5  2  3  0  0  0
  4 31  1  0  0  0  0
  5  6  1  0  0  0  0
  5 12  1  0  0  0  0
  6  7  1  0  0  0  0
  6 32  1  0  0  0  0
  7  8  1  0  0  0  0
  7 33  1  0  0  0  0
  7 34  1  0  0  0  0
  8  9  1  0  0  0  0
  8 35  1  0  0  0  0
  8 36  1  0  0  0  0
  9 10  1  0  0  0  0
  9 37  1  0  0  0  0
  9 38  1  0  0  0  0
 10 11  1  0  0  0  0
 10 39  1  0  0  0  0
 10 40  1  0  0  0  0
 11 41  1  0  0  0  0
 11 42  1  0  0  0  0
 11 43  1  0  0  0  0
 12 13  1  0  0  0  0
 12 24  1  0  0  0  0
 13 14  2  0  0  0  0
 14 15  1  0  0  0  0
 15 16  1  0  0  0  0
 15 25  1  0  0  0  0
 16 17  2  0  0  0  0
 16 44  1  0  0  0  0
 17 18  1  0  0  0  0
 17 45  1  0  0  0  0
 18 19  2  0  0  0  0
 18 46  1  0  0  0  0
 19 20  1  0  0  0  0
 19 47  1  0  0  0  0
 20 21  2  0  0  0  0
 20 48  1  0  0  0  0
 21 22  1  0  0  0  0
 21 49  1  0  0  0  0
 22 23  1  0  0  0  0
 22 24  2  0  0  0  0
 23 50  1  0  0  0  0
 23 51  1  0  0  0  0
 23 52  1  0  0  0  0
 24 53  1  0  0  0  0
 25 26  2  3  0  0  0
 25 54  1  0  0  0  0
 26 55  1  0  0  0  0
M  END
$$$$
