
 OpenBabel04232216393D

130130  0  0  0  0  0  0  0  0999 V2000
  155.4768 -208.6605   -6.3695 C   0  0  0  0  0  0  0  0  0  0  0  0
  156.6061 -208.0994   -3.8258 C   0  0  0  0  0  0  0  0  0  0  0  0
  154.4111 -208.3063   -7.6112 C   0  0  0  0  0  0  0  0  0  0  0  0
  152.4656 -208.5058  -10.8835 C   0  0  0  0  0  0  0  0  0  0  0  0
  150.5019 -208.8432  -14.3663 C   0  0  0  0  0  0  0  0  0  0  0  0
  148.7680 -209.0396  -16.9281 C   0  0  0  0  0  0  0  0  0  0  0  0
  146.6827 -208.6139  -19.3705 C   0  0  0  0  0  0  0  0  0  0  0  0
  145.8014 -207.9335  -19.5363 C   0  0  0  0  0  0  0  0  0  0  0  0
  145.9096 -209.6713  -19.0870 C   0  0  0  0  0  0  0  0  0  0  0  0
  147.8753 -209.8527  -19.2944 C   0  0  0  0  0  0  0  0  0  0  0  0
  147.5888 -210.0106  -17.1844 C   0  0  0  0  0  0  0  0  0  0  0  0
  148.5452 -207.9756  -16.4856 C   0  0  0  0  0  0  0  0  0  0  0  0
  147.7770 -209.3916  -15.4163 C   0  0  0  0  0  0  0  0  0  0  0  0
  148.7586 -208.4166  -14.3840 C   0  0  0  0  0  0  0  0  0  0  0  0
  149.6213 -210.0181  -13.3057 C   0  0  0  0  0  0  0  0  0  0  0  0
  150.1361 -208.9210  -12.0642 C   0  0  0  0  0  0  0  0  0  0  0  0
  151.0366 -209.8722  -11.0418 C   0  0  0  0  0  0  0  0  0  0  0  0
  151.6327 -208.4699   -9.8074 C   0  0  0  0  0  0  0  0  0  0  0  0
  151.9690 -209.3472   -9.1412 C   0  0  0  0  0  0  0  0  0  0  0  0
  152.0818 -207.5974   -8.9805 C   0  0  0  0  0  0  0  0  0  0  0  0
  152.8652 -208.6925   -7.3157 C   0  0  0  0  0  0  0  0  0  0  0  0
  153.9644 -208.0196   -6.0514 C   0  0  0  0  0  0  0  0  0  0  0  0
  154.7285 -209.2844   -5.0045 C   0  0  0  0  0  0  0  0  0  0  0  0
  154.9484 -208.3260   -3.9520 C   0  0  0  0  0  0  0  0  0  0  0  0
  156.1183 -209.3193   -3.0867 C   0  0  0  0  0  0  0  0  0  0  0  0
  157.5659 -209.0817   -2.9751 C   0  0  0  0  0  0  0  0  0  0  0  0
  157.6326 -209.1853   -0.8756 C   0  0  0  0  0  0  0  0  0  0  0  0
  157.5882 -208.0562    0.6328 C   0  0  0  0  0  0  0  0  0  0  0  0
  158.9355 -208.9755    1.2125 C   0  0  0  0  0  0  0  0  0  0  0  0
  159.6487 -207.8977    1.7843 C   0  0  0  0  0  0  0  0  0  0  0  0
  160.0907 -208.4709    2.8915 C   0  0  0  0  0  0  0  0  0  0  0  0
  160.6014 -207.7287    3.5378 C   0  0  0  0  0  0  0  0  0  0  0  0
  160.7550 -208.9562    4.7463 C   0  0  0  0  0  0  0  0  0  0  0  0
  159.8359 -208.3182    5.7129 C   0  0  0  0  0  0  0  0  0  0  0  0
  161.4800 -208.3514    7.0878 C   0  0  0  0  0  0  0  0  0  0  0  0
  163.3794 -208.2112    7.3493 C   0  0  0  0  0  0  0  0  0  0  0  0
  163.9682 -208.6301    9.1106 C   0  0  0  0  0  0  0  0  0  0  0  0
  165.2933 -208.0864   10.1262 C   0  0  0  0  0  0  0  0  0  0  0  0
  165.0647 -208.2199   11.6630 C   0  0  0  0  0  0  0  0  0  0  0  0
  166.6105 -207.7704   11.5974 C   0  0  0  0  0  0  0  0  0  0  0  0
  166.2351 -208.3259   13.1049 C   0  0  0  0  0  0  0  0  0  0  0  0
  167.1041 -207.9407   14.0579 C   0  0  0  0  0  0  0  0  0  0  0  0
  167.7893 -208.0126   15.5314 C   0  0  0  0  0  0  0  0  0  0  0  0
  169.1825 -207.6055   15.8595 C   0  0  0  0  0  0  0  0  0  0  0  0
  169.1223 -208.0245   17.4814 C   0  0  0  0  0  0  0  0  0  0  0  0
  170.4239 -207.1503   18.1002 C   0  0  0  0  0  0  0  0  0  0  0  0
  170.6406 -207.8107   19.8651 C   0  0  0  0  0  0  0  0  0  0  0  0
  171.9932 -206.9956   20.3121 C   0  0  0  0  0  0  0  0  0  0  0  0
  171.8335 -207.6656   21.8291 C   0  0  0  0  0  0  0  0  0  0  0  0
  172.6465 -206.5428   21.5906 C   0  0  0  0  0  0  0  0  0  0  0  0
  173.5160 -207.3508   23.1211 C   0  0  0  0  0  0  0  0  0  0  0  0
  174.0934 -207.4833   24.4985 C   0  0  0  0  0  0  0  0  0  0  0  0
  173.8655 -208.0886   26.5395 C   0  0  0  0  0  0  0  0  0  0  0  0
  175.1140 -206.4750   26.1472 C   0  0  0  0  0  0  0  0  0  0  0  0
  175.3941 -207.2625   26.8799 C   0  0  0  0  0  0  0  0  0  0  0  0
  175.0666 -206.9072   27.9667 C   0  0  0  0  0  0  0  0  0  0  0  0
  173.3887 -206.8912   25.6123 C   0  0  0  0  0  0  0  0  0  0  0  0
  171.6242 -206.6352   22.9135 C   0  0  0  0  0  0  0  0  0  0  0  0
  169.5268 -206.7253   19.5498 C   0  0  0  0  0  0  0  0  0  0  0  0
  167.6048 -206.7896   16.4570 C   0  0  0  0  0  0  0  0  0  0  0  0
  165.4957 -206.8693   12.4035 C   0  0  0  0  0  0  0  0  0  0  0  0
  163.6936 -207.1915    8.9092 C   0  0  0  0  0  0  0  0  0  0  0  0
  161.5483 -207.6034    4.6355 C   0  0  0  0  0  0  0  0  0  0  0  0
  159.2624 -207.8136    0.2918 C   0  0  0  0  0  0  0  0  0  0  0  0
  154.3277 -209.1758   -8.4688 H   0  0  0  0  0  0  0  0  0  0  0  0
  154.3425 -209.1357   -8.4889 H   0  0  0  0  0  0  0  0  0  0  0  0
  153.3610 -208.8687   -9.7075 H   0  0  0  0  0  0  0  0  0  0  0  0
  151.3857 -209.0966  -12.8245 H   0  0  0  0  0  0  0  0  0  0  0  0
  149.1517 -209.3291  -16.3150 H   0  0  0  0  0  0  0  0  0  0  0  0
  147.1943 -209.0089  -18.9875 H   0  0  0  0  0  0  0  0  0  0  0  0
  145.3562 -207.8055  -21.4099 H   0  0  0  0  0  0  0  0  0  0  0  0
  147.1320 -208.6893  -20.6444 H   0  0  0  0  0  0  0  0  0  0  0  0
  145.8580 -211.1803  -18.6941 H   0  0  0  0  0  0  0  0  0  0  0  0
  147.6165 -208.0909  -19.6260 H   0  0  0  0  0  0  0  0  0  0  0  0
  146.6277 -210.3981  -18.1346 H   0  0  0  0  0  0  0  0  0  0  0  0
  148.5110 -207.9395  -17.8758 H   0  0  0  0  0  0  0  0  0  0  0  0
  146.5822 -209.7251  -16.2036 H   0  0  0  0  0  0  0  0  0  0  0  0
  149.6380 -207.9895  -15.5678 H   0  0  0  0  0  0  0  0  0  0  0  0
  150.1829 -210.7718  -14.1635 H   0  0  0  0  0  0  0  0  0  0  0  0
  150.7846 -208.0064  -13.2519 H   0  0  0  0  0  0  0  0  0  0  0  0
  151.0713 -210.8453  -11.5409 H   0  0  0  0  0  0  0  0  0  0  0  0
  153.2359 -208.0608   -8.9221 H   0  0  0  0  0  0  0  0  0  0  0  0
  151.2923 -209.3935   -8.6230 H   0  0  0  0  0  0  0  0  0  0  0  0
  152.7492 -206.4849   -9.1784 H   0  0  0  0  0  0  0  0  0  0  0  0
  153.8802 -209.8690   -7.0566 H   0  0  0  0  0  0  0  0  0  0  0  0
  154.7622 -207.2126   -7.0587 H   0  0  0  0  0  0  0  0  0  0  0  0
  154.4661 -210.1609   -5.0578 H   0  0  0  0  0  0  0  0  0  0  0  0
  155.9090 -207.2865   -4.9538 H   0  0  0  0  0  0  0  0  0  0  0  0
  156.4056 -210.0845   -3.4200 H   0  0  0  0  0  0  0  0  0  0  0  0
  157.9023 -207.4872   -3.1706 H   0  0  0  0  0  0  0  0  0  0  0  0
  156.6753 -209.1225   -1.0940 H   0  0  0  0  0  0  0  0  0  0  0  0
  158.3750 -206.8841   -0.4562 H   0  0  0  0  0  0  0  0  0  0  0  0
  159.2740 -209.4689    1.6747 H   0  0  0  0  0  0  0  0  0  0  0  0
  159.7718 -206.8597    1.4441 H   0  0  0  0  0  0  0  0  0  0  0  0
  161.1354 -208.2894    3.1470 H   0  0  0  0  0  0  0  0  0  0  0  0
  161.0285 -206.6739    3.5433 H   0  0  0  0  0  0  0  0  0  0  0  0
  161.2342 -209.3980    5.3999 H   0  0  0  0  0  0  0  0  0  0  0  0
  158.1912 -207.9565    5.3680 H   0  0  0  0  0  0  0  0  0  0  0  0
  161.4123 -208.8793    8.3480 H   0  0  0  0  0  0  0  0  0  0  0  0
  163.6630 -206.5309    7.4838 H   0  0  0  0  0  0  0  0  0  0  0  0
  164.9172 -207.6572    8.8365 H   0  0  0  0  0  0  0  0  0  0  0  0
  165.1747 -206.4137    9.9196 H   0  0  0  0  0  0  0  0  0  0  0  0
  164.7820 -209.0310   11.7408 H   0  0  0  0  0  0  0  0  0  0  0  0
  166.4470 -206.1244   11.6396 H   0  0  0  0  0  0  0  0  0  0  0  0
  166.2898 -208.7701   13.8780 H   0  0  0  0  0  0  0  0  0  0  0  0
  167.2807 -206.2476   13.8387 H   0  0  0  0  0  0  0  0  0  0  0  0
  168.1909 -207.0119   15.1124 H   0  0  0  0  0  0  0  0  0  0  0  0
  168.9342 -206.0018   16.1478 H   0  0  0  0  0  0  0  0  0  0  0  0
  169.0303 -208.0048   18.4550 H   0  0  0  0  0  0  0  0  0  0  0  0
  170.1690 -205.5525   18.3349 H   0  0  0  0  0  0  0  0  0  0  0  0
  170.9243 -206.8075   19.7992 H   0  0  0  0  0  0  0  0  0  0  0  0
  172.0562 -205.3837   20.4192 H   0  0  0  0  0  0  0  0  0  0  0  0
  170.9521 -207.5397   22.7042 H   0  0  0  0  0  0  0  0  0  0  0  0
  172.7800 -205.2254   22.3513 H   0  0  0  0  0  0  0  0  0  0  0  0
  172.7234 -207.8161   24.3974 H   0  0  0  0  0  0  0  0  0  0  0  0
  173.9320 -205.7942   24.6572 H   0  0  0  0  0  0  0  0  0  0  0  0
  173.5988 -207.6079   28.2463 H   0  0  0  0  0  0  0  0  0  0  0  0
  175.0767 -205.0191   26.9721 H   0  0  0  0  0  0  0  0  0  0  0  0
  175.0241 -206.7779   28.5014 H   0  0  0  0  0  0  0  0  0  0  0  0
  176.1393 -205.5416   28.7029 H   0  0  0  0  0  0  0  0  0  0  0  0
  174.9693 -207.4551   27.7241 H   0  0  0  0  0  0  0  0  0  0  0  0
  172.8967 -206.4491   25.1224 H   0  0  0  0  0  0  0  0  0  0  0  0
  170.6687 -206.4322   21.7444 H   0  0  0  0  0  0  0  0  0  0  0  0
  168.8383 -206.4510   18.4669 H   0  0  0  0  0  0  0  0  0  0  0  0
  166.5853 -206.6354   14.4983 H   0  0  0  0  0  0  0  0  0  0  0  0
  164.7193 -206.8383   10.8669 H   0  0  0  0  0  0  0  0  0  0  0  0
  162.4468 -207.1910    6.3989 H   0  0  0  0  0  0  0  0  0  0  0  0
  162.3644 -207.1905    6.4464 H   0  0  0  0  0  0  0  0  0  0  0  0
  158.0575 -207.8921   -1.5130 H   0  0  0  0  0  0  0  0  0  0  0  0
  157.8358 -207.9342   -1.3850 H   0  0  0  0  0  0  0  0  0  0  0  0
  1  2  2  0  0  0  0
  1 65  1  0  0  0  0
  1 66  1  0  0  0  0
  2  3  1  0  0  0  0
  2 64  1  0  0  0  0
  3  4  2  3  0  0  0
  3 67  1  0  0  0  0
  4  5  1  0  0  0  0
  4 68  1  0  0  0  0
  5  6  2  3  0  0  0
  5 69  1  0  0  0  0
  6  7  1  0  0  0  0
  6 70  1  0  0  0  0
  7  8  2  3  0  0  0
  7 71  1  0  0  0  0
  8  9  1  0  0  0  0
  8 72  1  0  0  0  0
  9 10  2  3  0  0  0
  9 73  1  0  0  0  0
 10 11  1  0  0  0  0
 10 74  1  0  0  0  0
 11 12  2  3  0  0  0
 11 75  1  0  0  0  0
 12 13  1  0  0  0  0
 12 76  1  0  0  0  0
 13 14  2  3  0  0  0
 13 77  1  0  0  0  0
 14 15  1  0  0  0  0
 14 78  1  0  0  0  0
 15 16  2  3  0  0  0
 15 79  1  0  0  0  0
 16 17  1  0  0  0  0
 16 80  1  0  0  0  0
 17 18  2  3  0  0  0
 17 81  1  0  0  0  0
 18 19  1  0  0  0  0
 18 82  1  0  0  0  0
 19 20  2  3  0  0  0
 19 83  1  0  0  0  0
 20 21  1  0  0  0  0
 20 84  1  0  0  0  0
 21 22  2  3  0  0  0
 21 85  1  0  0  0  0
 22 23  1  0  0  0  0
 22 86  1  0  0  0  0
 23 24  2  3  0  0  0
 23 87  1  0  0  0  0
 24 25  1  0  0  0  0
 24 88  1  0  0  0  0
 25 26  2  3  0  0  0
 25 89  1  0  0  0  0
 26 27  1  0  0  0  0
 26 90  1  0  0  0  0
 27 28  2  3  0  0  0
 27 91  1  0  0  0  0
 28 29  1  0  0  0  0
 28 92  1  0  0  0  0
 29 30  2  3  0  0  0
 29 93  1  0  0  0  0
 30 31  1  0  0  0  0
 30 94  1  0  0  0  0
 31 32  2  3  0  0  0
 31 95  1  0  0  0  0
 32 33  1  0  0  0  0
 32 96  1  0  0  0  0
 33 34  2  3  0  0  0
 33 97  1  0  0  0  0
 34 35  1  0  0  0  0
 34 98  1  0  0  0  0
 35 36  2  3  0  0  0
 35 99  1  0  0  0  0
 36 37  1  0  0  0  0
 36100  1  0  0  0  0
 37 38  2  3  0  0  0
 37101  1  0  0  0  0
 38 39  1  0  0  0  0
 38102  1  0  0  0  0
 39 40  2  3  0  0  0
 39103  1  0  0  0  0
 40 41  1  0  0  0  0
 40104  1  0  0  0  0
 41 42  2  3  0  0  0
 41105  1  0  0  0  0
 42 43  1  0  0  0  0
 42106  1  0  0  0  0
 43 44  2  3  0  0  0
 43107  1  0  0  0  0
 44 45  1  0  0  0  0
 44108  1  0  0  0  0
 45 46  2  3  0  0  0
 45109  1  0  0  0  0
 46 47  1  0  0  0  0
 46110  1  0  0  0  0
 47 48  2  3  0  0  0
 47111  1  0  0  0  0
 48 49  1  0  0  0  0
 48112  1  0  0  0  0
 49 50  2  3  0  0  0
 49113  1  0  0  0  0
 50 51  1  0  0  0  0
 50114  1  0  0  0  0
 51 52  2  3  0  0  0
 51115  1  0  0  0  0
 52 53  1  0  0  0  0
 52116  1  0  0  0  0
 53 54  2  3  0  0  0
 53117  1  0  0  0  0
 54 55  1  0  0  0  0
 54118  1  0  0  0  0
 55 56  2  3  0  0  0
 55119  1  0  0  0  0
 56 57  1  0  0  0  0
 56120  1  0  0  0  0
 57 58  2  3  0  0  0
 57121  1  0  0  0  0
 58 59  1  0  0  0  0
 58122  1  0  0  0  0
 59 60  2  3  0  0  0
 59123  1  0  0  0  0
 60 61  1  0  0  0  0
 60124  1  0  0  0  0
 61 62  2  3  0  0  0
 61125  1  0  0  0  0
 62 63  1  0  0  0  0
 62126  1  0  0  0  0
 63 64  1  0  0  0  0
 63127  1  0  0  0  0
 63128  1  0  0  0  0
 64129  1  0  0  0  0
 64130  1  0  0  0  0
M  END
$$$$
