
 OpenBabel04232216433D

239238  0  0  1  0  0  0  0  0999 V2000
    0.9691   -0.0141    0.1229 C   0  0  0  0  0  0  0  0  0  0  0  0
    2.4962    0.0159    0.1469 C   0  0  3  0  0  0  0  0  0  0  0  0
    3.0325   -0.1917    1.5751 C   0  0  0  0  0  0  0  0  0  0  0  0
    2.5509    0.8833    2.5336 C   0  0  0  0  0  0  0  0  0  0  0  0
    3.0313   -1.0648   -0.7997 C   0  0  0  0  0  0  0  0  0  0  0  0
    4.5526   -1.0811   -0.8310 C   0  0  0  0  0  0  0  0  0  0  0  0
    5.0568   -2.1540   -1.7707 C   0  0  0  0  0  0  0  0  0  0  0  0
    6.5744   -2.1443   -1.7687 C   0  0  0  0  0  0  0  0  0  0  0  0
    7.0864   -3.2190   -2.7053 C   0  0  0  0  0  0  0  0  0  0  0  0
    8.6021   -3.2160   -2.7102 C   0  0  0  0  0  0  0  0  0  0  0  0
    9.1109   -4.2906   -3.6500 C   0  0  0  0  0  0  0  0  0  0  0  0
   10.6269   -4.2913   -3.6560 C   0  0  0  0  0  0  0  0  0  0  0  0
   11.1367   -5.3673   -4.5949 C   0  0  0  0  0  0  0  0  0  0  0  0
   12.6529   -5.3670   -4.6026 C   0  0  0  0  0  0  0  0  0  0  0  0
   13.1628   -6.4442   -5.5398 C   0  0  0  0  0  0  0  0  0  0  0  0
   14.6794   -6.4435   -5.5473 C   0  0  0  0  0  0  0  0  0  0  0  0
   15.1888   -7.5207   -6.4871 C   0  0  0  0  0  0  0  0  0  0  0  0
   16.7070   -7.5177   -6.4952 C   0  0  0  0  0  0  0  0  0  0  0  0
   17.2155   -8.5969   -7.4343 C   0  0  0  0  0  0  0  0  0  0  0  0
   18.7337   -8.5948   -7.4404 C   0  0  0  0  0  0  0  0  0  0  0  0
   19.2420   -9.6728   -8.3809 C   0  0  0  0  0  0  0  0  0  0  0  0
   20.7603   -9.6719   -8.3856 C   0  0  0  0  0  0  0  0  0  0  0  0
   21.2687  -10.7512   -9.3246 C   0  0  0  0  0  0  0  0  0  0  0  0
   22.7869  -10.7491   -9.3307 C   0  0  0  0  0  0  0  0  0  0  0  0
   23.2953  -11.8297  -10.2683 C   0  0  0  0  0  0  0  0  0  0  0  0
   24.8136  -11.8276  -10.2745 C   0  0  0  0  0  0  0  0  0  0  0  0
   25.3220  -12.9069  -11.2135 C   0  0  0  0  0  0  0  0  0  0  0  0
   26.8403  -12.9047  -11.2197 C   0  0  0  0  0  0  0  0  0  0  0  0
   27.3486  -13.9841  -12.1588 C   0  0  0  0  0  0  0  0  0  0  0  0
   28.8669  -13.9819  -12.1649 C   0  0  0  0  0  0  0  0  0  0  0  0
   29.3753  -15.0613  -13.1040 C   0  0  0  0  0  0  0  0  0  0  0  0
   30.8936  -15.0604  -13.1086 C   0  0  0  0  0  0  0  0  0  0  0  0
   31.4019  -16.1398  -14.0476 C   0  0  0  0  0  0  0  0  0  0  0  0
   32.9202  -16.1389  -14.0522 C   0  0  0  0  0  0  0  0  0  0  0  0
   33.4286  -17.2182  -14.9914 C   0  0  0  0  0  0  0  0  0  0  0  0
   34.9469  -17.2174  -14.9960 C   0  0  0  0  0  0  0  0  0  0  0  0
   35.4552  -18.2954  -15.9365 C   0  0  0  0  0  0  0  0  0  0  0  0
   36.9735  -18.2959  -15.9396 C   0  0  0  0  0  0  0  0  0  0  0  0
   37.4819  -19.3752  -16.8788 C   0  0  0  0  0  0  0  0  0  0  0  0
   39.0002  -19.3770  -16.8803 C   0  0  0  0  0  0  0  0  0  0  0  0
   39.5086  -20.4551  -17.8209 C   0  0  0  0  0  0  0  0  0  0  0  0
   41.0269  -20.4582  -17.8209 C   0  0  0  0  0  0  0  0  0  0  0  0
   41.5352  -21.5362  -18.7615 C   0  0  0  0  0  0  0  0  0  0  0  0
   43.0535  -21.5394  -18.7616 C   0  0  0  0  0  0  0  0  0  0  0  0
   43.5619  -22.6174  -19.7022 C   0  0  0  0  0  0  0  0  0  0  0  0
   45.0802  -22.6205  -19.7022 C   0  0  0  0  0  0  0  0  0  0  0  0
   45.5885  -23.6985  -20.6428 C   0  0  0  0  0  0  0  0  0  0  0  0
   47.1068  -23.7030  -20.6413 C   0  0  0  0  0  0  0  0  0  0  0  0
   47.6152  -24.7797  -21.5834 C   0  0  0  0  0  0  0  0  0  0  0  0
   49.1335  -24.7829  -21.5834 C   0  0  0  0  0  0  0  0  0  0  0  0
   49.6419  -25.8582  -22.5271 C   0  0  0  0  0  0  0  0  0  0  0  0
   51.1602  -25.8613  -22.5272 C   0  0  0  0  0  0  0  0  0  0  0  0
   51.6685  -26.9354  -23.4723 C   0  0  0  0  0  0  0  0  0  0  0  0
   53.1868  -26.9398  -23.4709 C   0  0  0  0  0  0  0  0  0  0  0  0
   53.6952  -28.0151  -24.4145 C   0  0  0  0  0  0  0  0  0  0  0  0
   55.2135  -28.0183  -24.4145 C   0  0  0  0  0  0  0  0  0  0  0  0
   55.7219  -29.0936  -25.3582 C   0  0  0  0  0  0  0  0  0  0  0  0
   57.2402  -29.0955  -25.3597 C   0  0  0  0  0  0  0  0  0  0  0  0
   57.7485  -30.1708  -26.3034 C   0  0  0  0  0  0  0  0  0  0  0  0
   59.2668  -30.1726  -26.3049 C   0  0  0  0  0  0  0  0  0  0  0  0
   59.7752  -31.2479  -27.2486 C   0  0  0  0  0  0  0  0  0  0  0  0
   61.2935  -31.2497  -27.2501 C   0  0  0  0  0  0  0  0  0  0  0  0
   61.8019  -32.3251  -28.1938 C   0  0  0  0  0  0  0  0  0  0  0  0
   63.3202  -32.3269  -28.1953 C   0  0  0  0  0  0  0  0  0  0  0  0
   63.8285  -33.4023  -29.1390 C   0  0  0  0  0  0  0  0  0  0  0  0
   65.3468  -33.4041  -29.1405 C   0  0  0  0  0  0  0  0  0  0  0  0
   65.8552  -34.4794  -30.0842 C   0  0  0  0  0  0  0  0  0  0  0  0
   67.3737  -34.4801  -30.0874 C   0  0  0  0  0  0  0  0  0  0  0  0
   67.8822  -35.5551  -31.0308 C   0  0  0  0  0  0  0  0  0  0  0  0
   69.4000  -35.5562  -31.0344 C   0  0  0  0  0  0  0  0  0  0  0  0
   69.9093  -36.6302  -31.9769 C   0  0  0  0  0  0  0  0  0  0  0  0
   71.4262  -36.6327  -31.9817 C   0  0  0  0  0  0  0  0  0  0  0  0
   71.9361  -37.7064  -32.9239 C   0  0  0  0  0  0  0  0  0  0  0  0
   73.4542  -37.7106  -32.9276 C   0  0  0  0  0  0  0  0  0  0  0  0
   73.9685  -38.7827  -33.8684 C   0  0  0  0  0  0  0  0  0  0  0  0
   75.4866  -38.7878  -33.8728 C   0  0  0  0  0  0  0  0  0  0  0  0
   76.0083  -39.8581  -34.8147 C   0  0  0  0  0  0  0  0  0  0  0  0
   77.5251  -39.8737  -34.8311 C   0  0  0  0  0  0  0  0  0  0  0  0
   78.0291  -40.9490  -35.7773 C   0  0  0  0  0  0  0  0  0  0  0  0
    0.5433    0.7820    0.7397 H   0  0  0  0  0  0  0  0  0  0  0  0
    0.5977   -0.9730    0.4998 H   0  0  0  0  0  0  0  0  0  0  0  0
    0.5857    0.1323   -0.8911 H   0  0  0  0  0  0  0  0  0  0  0  0
    2.8324    0.9941   -0.2217 H   0  0  0  0  0  0  0  0  0  0  0  0
    4.1251   -0.1507    1.5930 H   0  0  0  0  0  0  0  0  0  0  0  0
    2.7436   -1.1829    1.9413 H   0  0  0  0  0  0  0  0  0  0  0  0
    2.8590    1.8686    2.1720 H   0  0  0  0  0  0  0  0  0  0  0  0
    2.9814    0.7213    3.5233 H   0  0  0  0  0  0  0  0  0  0  0  0
    1.4650    0.8682    2.6377 H   0  0  0  0  0  0  0  0  0  0  0  0
    2.6524   -0.8866   -1.8162 H   0  0  0  0  0  0  0  0  0  0  0  0
    2.6585   -2.0501   -0.4934 H   0  0  0  0  0  0  0  0  0  0  0  0
    4.9602   -1.2994    0.1618 H   0  0  0  0  0  0  0  0  0  0  0  0
    4.9308   -0.0969   -1.1310 H   0  0  0  0  0  0  0  0  0  0  0  0
    4.6753   -1.9790   -2.7819 H   0  0  0  0  0  0  0  0  0  0  0  0
    4.6910   -3.1341   -1.4417 H   0  0  0  0  0  0  0  0  0  0  0  0
    6.9529   -2.3208   -0.7537 H   0  0  0  0  0  0  0  0  0  0  0  0
    6.9440   -1.1612   -2.0843 H   0  0  0  0  0  0  0  0  0  0  0  0
    6.7069   -3.0398   -3.7182 H   0  0  0  0  0  0  0  0  0  0  0  0
    6.7141   -4.2000   -2.3856 H   0  0  0  0  0  0  0  0  0  0  0  0
    8.9800   -3.3947   -1.6959 H   0  0  0  0  0  0  0  0  0  0  0  0
    8.9728   -2.2336   -3.0272 H   0  0  0  0  0  0  0  0  0  0  0  0
    8.7325   -4.1102   -4.6638 H   0  0  0  0  0  0  0  0  0  0  0  0
    8.7372   -5.2721   -3.3333 H   0  0  0  0  0  0  0  0  0  0  0  0
   11.0047   -4.4700   -2.6417 H   0  0  0  0  0  0  0  0  0  0  0  0
   10.9999   -3.3098   -3.9738 H   0  0  0  0  0  0  0  0  0  0  0  0
   10.7574   -5.1893   -5.6087 H   0  0  0  0  0  0  0  0  0  0  0  0
   10.7644   -6.3487   -4.2760 H   0  0  0  0  0  0  0  0  0  0  0  0
   13.0323   -5.5435   -3.5884 H   0  0  0  0  0  0  0  0  0  0  0  0
   13.0252   -4.3859   -4.9227 H   0  0  0  0  0  0  0  0  0  0  0  0
   12.7839   -6.2679   -6.5542 H   0  0  0  0  0  0  0  0  0  0  0  0
   12.7910   -7.4256   -5.2199 H   0  0  0  0  0  0  0  0  0  0  0  0
   15.0590   -6.6218   -4.5338 H   0  0  0  0  0  0  0  0  0  0  0  0
   15.0520   -5.4625   -5.8664 H   0  0  0  0  0  0  0  0  0  0  0  0
   14.8094   -7.3434   -7.5004 H   0  0  0  0  0  0  0  0  0  0  0  0
   14.8186   -8.5019   -6.1673 H   0  0  0  0  0  0  0  0  0  0  0  0
   17.0867   -7.6940   -5.4822 H   0  0  0  0  0  0  0  0  0  0  0  0
   17.0773   -6.5373   -6.8167 H   0  0  0  0  0  0  0  0  0  0  0  0
   16.8369   -8.4197   -8.4474 H   0  0  0  0  0  0  0  0  0  0  0  0
   16.8441   -9.5770   -7.1136 H   0  0  0  0  0  0  0  0  0  0  0  0
   19.1120   -8.7733   -6.4273 H   0  0  0  0  0  0  0  0  0  0  0  0
   19.1051   -7.6142   -7.7596 H   0  0  0  0  0  0  0  0  0  0  0  0
   18.8647   -9.4934   -9.3942 H   0  0  0  0  0  0  0  0  0  0  0  0
   18.8695  -10.6531   -8.0625 H   0  0  0  0  0  0  0  0  0  0  0  0
   21.1376   -9.8499   -7.3720 H   0  0  0  0  0  0  0  0  0  0  0  0
   21.1328   -8.6919   -8.7053 H   0  0  0  0  0  0  0  0  0  0  0  0
   20.8903  -10.5741  -10.3379 H   0  0  0  0  0  0  0  0  0  0  0  0
   20.8972  -11.7313   -9.0039 H   0  0  0  0  0  0  0  0  0  0  0  0
   23.1654  -10.9248   -8.3173 H   0  0  0  0  0  0  0  0  0  0  0  0
   23.1583   -9.7694   -9.6528 H   0  0  0  0  0  0  0  0  0  0  0  0
   22.9168  -11.6540  -11.2818 H   0  0  0  0  0  0  0  0  0  0  0  0
   22.9240  -12.8094   -9.9463 H   0  0  0  0  0  0  0  0  0  0  0  0
   25.1920  -12.0047   -9.2612 H   0  0  0  0  0  0  0  0  0  0  0  0
   25.1850  -10.8475  -10.5951 H   0  0  0  0  0  0  0  0  0  0  0  0
   24.9436  -12.7298  -12.2268 H   0  0  0  0  0  0  0  0  0  0  0  0
   24.9506  -13.8870  -10.8929 H   0  0  0  0  0  0  0  0  0  0  0  0
   27.2187  -13.0819  -10.2064 H   0  0  0  0  0  0  0  0  0  0  0  0
   27.2116  -11.9247  -11.5403 H   0  0  0  0  0  0  0  0  0  0  0  0
   26.9702  -13.8070  -13.1720 H   0  0  0  0  0  0  0  0  0  0  0  0
   26.9772  -14.9642  -11.8381 H   0  0  0  0  0  0  0  0  0  0  0  0
   29.2453  -14.1590  -11.1516 H   0  0  0  0  0  0  0  0  0  0  0  0
   29.2383  -13.0018  -12.4855 H   0  0  0  0  0  0  0  0  0  0  0  0
   28.9980  -14.8833  -14.1175 H   0  0  0  0  0  0  0  0  0  0  0  0
   29.0028  -16.0412  -12.7841 H   0  0  0  0  0  0  0  0  0  0  0  0
   31.2708  -15.2384  -12.0950 H   0  0  0  0  0  0  0  0  0  0  0  0
   31.2661  -14.0805  -13.4284 H   0  0  0  0  0  0  0  0  0  0  0  0
   31.0247  -15.9618  -15.0612 H   0  0  0  0  0  0  0  0  0  0  0  0
   31.0294  -17.1197  -13.7278 H   0  0  0  0  0  0  0  0  0  0  0  0
   33.2975  -16.3169  -13.0387 H   0  0  0  0  0  0  0  0  0  0  0  0
   33.2928  -15.1590  -14.3721 H   0  0  0  0  0  0  0  0  0  0  0  0
   33.0513  -17.0403  -16.0049 H   0  0  0  0  0  0  0  0  0  0  0  0
   33.0561  -18.1982  -14.6715 H   0  0  0  0  0  0  0  0  0  0  0  0
   35.3240  -17.3968  -13.9826 H   0  0  0  0  0  0  0  0  0  0  0  0
   35.3195  -16.2371  -15.3144 H   0  0  0  0  0  0  0  0  0  0  0  0
   35.0792  -18.1153  -16.9502 H   0  0  0  0  0  0  0  0  0  0  0  0
   35.0815  -19.2756  -15.6189 H   0  0  0  0  0  0  0  0  0  0  0  0
   37.3496  -18.4747  -14.9258 H   0  0  0  0  0  0  0  0  0  0  0  0
   37.3473  -17.3161  -16.2586 H   0  0  0  0  0  0  0  0  0  0  0  0
   37.1069  -19.1956  -17.8928 H   0  0  0  0  0  0  0  0  0  0  0  0
   37.1071  -20.3548  -16.5606 H   0  0  0  0  0  0  0  0  0  0  0  0
   39.3750  -19.5580  -15.8664 H   0  0  0  0  0  0  0  0  0  0  0  0
   39.3752  -18.3971  -17.1971 H   0  0  0  0  0  0  0  0  0  0  0  0
   39.1348  -20.2732  -18.8350 H   0  0  0  0  0  0  0  0  0  0  0  0
   39.1325  -21.4349  -17.5050 H   0  0  0  0  0  0  0  0  0  0  0  0
   41.4006  -20.6400  -16.8068 H   0  0  0  0  0  0  0  0  0  0  0  0
   41.4029  -19.4784  -18.1368 H   0  0  0  0  0  0  0  0  0  0  0  0
   41.1615  -21.3544  -19.7757 H   0  0  0  0  0  0  0  0  0  0  0  0
   41.1591  -22.5160  -18.4456 H   0  0  0  0  0  0  0  0  0  0  0  0
   43.4272  -21.7212  -17.7474 H   0  0  0  0  0  0  0  0  0  0  0  0
   43.4296  -20.5595  -19.0775 H   0  0  0  0  0  0  0  0  0  0  0  0
   43.1882  -22.4356  -20.7163 H   0  0  0  0  0  0  0  0  0  0  0  0
   43.1858  -23.5972  -19.3862 H   0  0  0  0  0  0  0  0  0  0  0  0
   45.4539  -22.8023  -18.6880 H   0  0  0  0  0  0  0  0  0  0  0  0
   45.4563  -21.6407  -20.0181 H   0  0  0  0  0  0  0  0  0  0  0  0
   45.2159  -23.5158  -21.6572 H   0  0  0  0  0  0  0  0  0  0  0  0
   45.2114  -24.6782  -20.3278 H   0  0  0  0  0  0  0  0  0  0  0  0
   47.4794  -23.8870  -19.6271 H   0  0  0  0  0  0  0  0  0  0  0  0
   47.4841  -22.7229  -20.9550 H   0  0  0  0  0  0  0  0  0  0  0  0
   47.2415  -24.5964  -22.5974 H   0  0  0  0  0  0  0  0  0  0  0  0
   47.2391  -25.7600  -21.2690 H   0  0  0  0  0  0  0  0  0  0  0  0
   49.5072  -24.9674  -20.5698 H   0  0  0  0  0  0  0  0  0  0  0  0
   49.5096  -23.8021  -21.8967 H   0  0  0  0  0  0  0  0  0  0  0  0
   49.2681  -25.6734  -23.5408 H   0  0  0  0  0  0  0  0  0  0  0  0
   49.2658  -26.8389  -22.2140 H   0  0  0  0  0  0  0  0  0  0  0  0
   51.5338  -26.0474  -21.5137 H   0  0  0  0  0  0  0  0  0  0  0  0
   51.5363  -24.8802  -22.8390 H   0  0  0  0  0  0  0  0  0  0  0  0
   51.2960  -26.7484  -24.4860 H   0  0  0  0  0  0  0  0  0  0  0  0
   51.2913  -27.9163  -23.1614 H   0  0  0  0  0  0  0  0  0  0  0  0
   53.5595  -27.1253  -22.4569 H   0  0  0  0  0  0  0  0  0  0  0  0
   53.5640  -25.9592  -23.7831 H   0  0  0  0  0  0  0  0  0  0  0  0
   53.3215  -27.8305  -25.4282 H   0  0  0  0  0  0  0  0  0  0  0  0
   53.3191  -28.9958  -24.1014 H   0  0  0  0  0  0  0  0  0  0  0  0
   55.5873  -28.2030  -23.4009 H   0  0  0  0  0  0  0  0  0  0  0  0
   55.5895  -27.0376  -24.7277 H   0  0  0  0  0  0  0  0  0  0  0  0
   55.3470  -28.9098  -26.3716 H   0  0  0  0  0  0  0  0  0  0  0  0
   55.3469  -30.0745  -25.0442 H   0  0  0  0  0  0  0  0  0  0  0  0
   57.6151  -29.2793  -24.3464 H   0  0  0  0  0  0  0  0  0  0  0  0
   57.6151  -28.1145  -25.6737 H   0  0  0  0  0  0  0  0  0  0  0  0
   57.3736  -29.9869  -27.3167 H   0  0  0  0  0  0  0  0  0  0  0  0
   57.3736  -31.1517  -25.9894 H   0  0  0  0  0  0  0  0  0  0  0  0
   59.6417  -30.3565  -25.2916 H   0  0  0  0  0  0  0  0  0  0  0  0
   59.6417  -29.1917  -26.6189 H   0  0  0  0  0  0  0  0  0  0  0  0
   59.4003  -31.0641  -28.2619 H   0  0  0  0  0  0  0  0  0  0  0  0
   59.4003  -32.2288  -26.9346 H   0  0  0  0  0  0  0  0  0  0  0  0
   61.6684  -31.4336  -26.2368 H   0  0  0  0  0  0  0  0  0  0  0  0
   61.6684  -30.2689  -27.5641 H   0  0  0  0  0  0  0  0  0  0  0  0
   61.4270  -32.1412  -29.2072 H   0  0  0  0  0  0  0  0  0  0  0  0
   61.4270  -33.3060  -27.8798 H   0  0  0  0  0  0  0  0  0  0  0  0
   63.6951  -32.5108  -27.1820 H   0  0  0  0  0  0  0  0  0  0  0  0
   63.6951  -31.3460  -28.5093 H   0  0  0  0  0  0  0  0  0  0  0  0
   63.4536  -33.2184  -30.1523 H   0  0  0  0  0  0  0  0  0  0  0  0
   63.4536  -34.3832  -28.8250 H   0  0  0  0  0  0  0  0  0  0  0  0
   65.7218  -33.5879  -28.1272 H   0  0  0  0  0  0  0  0  0  0  0  0
   65.7217  -32.4231  -29.4545 H   0  0  0  0  0  0  0  0  0  0  0  0
   65.4792  -34.2963  -31.0973 H   0  0  0  0  0  0  0  0  0  0  0  0
   65.4814  -35.4605  -29.7693 H   0  0  0  0  0  0  0  0  0  0  0  0
   67.7495  -34.6629  -29.0741 H   0  0  0  0  0  0  0  0  0  0  0  0
   67.7472  -33.4988  -30.4021 H   0  0  0  0  0  0  0  0  0  0  0  0
   67.5058  -35.3721  -32.0440 H   0  0  0  0  0  0  0  0  0  0  0  0
   67.5082  -36.5363  -30.7160 H   0  0  0  0  0  0  0  0  0  0  0  0
   69.7763  -35.7389  -30.0208 H   0  0  0  0  0  0  0  0  0  0  0  0
   69.7739  -34.5745  -31.3489 H   0  0  0  0  0  0  0  0  0  0  0  0
   69.5326  -36.4478  -32.9909 H   0  0  0  0  0  0  0  0  0  0  0  0
   69.5350  -37.6122  -31.6626 H   0  0  0  0  0  0  0  0  0  0  0  0
   71.8029  -36.8151  -30.9677 H   0  0  0  0  0  0  0  0  0  0  0  0
   71.8007  -35.6506  -32.2960 H   0  0  0  0  0  0  0  0  0  0  0  0
   71.5607  -37.5229  -33.9380 H   0  0  0  0  0  0  0  0  0  0  0  0
   71.5608  -38.6880  -32.6102 H   0  0  0  0  0  0  0  0  0  0  0  0
   73.8289  -37.8935  -31.9132 H   0  0  0  0  0  0  0  0  0  0  0  0
   73.8289  -36.7286  -33.2407 H   0  0  0  0  0  0  0  0  0  0  0  0
   73.5896  -38.6009  -34.8835 H   0  0  0  0  0  0  0  0  0  0  0  0
   73.5896  -39.7657  -33.5563 H   0  0  0  0  0  0  0  0  0  0  0  0
   75.8584  -38.9718  -32.8582 H   0  0  0  0  0  0  0  0  0  0  0  0
   75.8584  -37.8048  -34.1843 H   0  0  0  0  0  0  0  0  0  0  0  0
   75.6207  -39.6755  -35.8284 H   0  0  0  0  0  0  0  0  0  0  0  0
   75.6229  -40.8407  -34.5031 H   0  0  0  0  0  0  0  0  0  0  0  0
   77.9071  -40.0638  -33.8226 H   0  0  0  0  0  0  0  0  0  0  0  0
   77.9048  -38.8972  -35.1495 H   0  0  0  0  0  0  0  0  0  0  0  0
   77.6775  -41.9343  -35.4611 H   0  0  0  0  0  0  0  0  0  0  0  0
   79.1284  -40.9576  -35.7868 H   0  0  0  0  0  0  0  0  0  0  0  0
   77.6752  -40.7621  -36.7943 H   0  0  0  0  0  0  0  0  0  0  0  0
  1  2  1  0  0  0  0
  1 80  1  0  0  0  0
  1 81  1  0  0  0  0
  1 82  1  0  0  0  0
  2  3  1  0  0  0  0
  2  5  1  0  0  0  0
  2 83  1  0  0  0  0
  3  4  1  0  0  0  0
  3 84  1  0  0  0  0
  3 85  1  0  0  0  0
  4 86  1  0  0  0  0
  4 87  1  0  0  0  0
  4 88  1  0  0  0  0
  5  6  1  0  0  0  0
  5 89  1  0  0  0  0
  5 90  1  0  0  0  0
  6  7  1  0  0  0  0
  6 91  1  0  0  0  0
  6 92  1  0  0  0  0
  7  8  1  0  0  0  0
  7 93  1  0  0  0  0
  7 94  1  0  0  0  0
  8  9  1  0  0  0  0
  8 95  1  0  0  0  0
  8 96  1  0  0  0  0
  9 10  1  0  0  0  0
  9 97  1  0  0  0  0
  9 98  1  0  0  0  0
 10 11  1  0  0  0  0
 10 99  1  0  0  0  0
 10100  1  0  0  0  0
 11 12  1  0  0  0  0
 11101  1  0  0  0  0
 11102  1  0  0  0  0
 12 13  1  0  0  0  0
 12103  1  0  0  0  0
 12104  1  0  0  0  0
 13 14  1  0  0  0  0
 13105  1  0  0  0  0
 13106  1  0  0  0  0
 14 15  1  0  0  0  0
 14107  1  0  0  0  0
 14108  1  0  0  0  0
 15 16  1  0  0  0  0
 15109  1  0  0  0  0
 15110  1  0  0  0  0
 16 17  1  0  0  0  0
 16111  1  0  0  0  0
 16112  1  0  0  0  0
 17 18  1  0  0  0  0
 17113  1  0  0  0  0
 17114  1  0  0  0  0
 18 19  1  0  0  0  0
 18115  1  0  0  0  0
 18116  1  0  0  0  0
 19 20  1  0  0  0  0
 19117  1  0  0  0  0
 19118  1  0  0  0  0
 20 21  1  0  0  0  0
 20119  1  0  0  0  0
 20120  1  0  0  0  0
 21 22  1  0  0  0  0
 21121  1  0  0  0  0
 21122  1  0  0  0  0
 22 23  1  0  0  0  0
 22123  1  0  0  0  0
 22124  1  0  0  0  0
 23 24  1  0  0  0  0
 23125  1  0  0  0  0
 23126  1  0  0  0  0
 24 25  1  0  0  0  0
 24127  1  0  0  0  0
 24128  1  0  0  0  0
 25 26  1  0  0  0  0
 25129  1  0  0  0  0
 25130  1  0  0  0  0
 26 27  1  0  0  0  0
 26131  1  0  0  0  0
 26132  1  0  0  0  0
 27 28  1  0  0  0  0
 27133  1  0  0  0  0
 27134  1  0  0  0  0
 28 29  1  0  0  0  0
 28135  1  0  0  0  0
 28136  1  0  0  0  0
 29 30  1  0  0  0  0
 29137  1  0  0  0  0
 29138  1  0  0  0  0
 30 31  1  0  0  0  0
 30139  1  0  0  0  0
 30140  1  0  0  0  0
 31 32  1  0  0  0  0
 31141  1  0  0  0  0
 31142  1  0  0  0  0
 32 33  1  0  0  0  0
 32143  1  0  0  0  0
 32144  1  0  0  0  0
 33 34  1  0  0  0  0
 33145  1  0  0  0  0
 33146  1  0  0  0  0
 34 35  1  0  0  0  0
 34147  1  0  0  0  0
 34148  1  0  0  0  0
 35 36  1  0  0  0  0
 35149  1  0  0  0  0
 35150  1  0  0  0  0
 36 37  1  0  0  0  0
 36151  1  0  0  0  0
 36152  1  0  0  0  0
 37 38  1  0  0  0  0
 37153  1  0  0  0  0
 37154  1  0  0  0  0
 38 39  1  0  0  0  0
 38155  1  0  0  0  0
 38156  1  0  0  0  0
 39 40  1  0  0  0  0
 39157  1  0  0  0  0
 39158  1  0  0  0  0
 40 41  1  0  0  0  0
 40159  1  0  0  0  0
 40160  1  0  0  0  0
 41 42  1  0  0  0  0
 41161  1  0  0  0  0
 41162  1  0  0  0  0
 42 43  1  0  0  0  0
 42163  1  0  0  0  0
 42164  1  0  0  0  0
 43 44  1  0  0  0  0
 43165  1  0  0  0  0
 43166  1  0  0  0  0
 44 45  1  0  0  0  0
 44167  1  0  0  0  0
 44168  1  0  0  0  0
 45 46  1  0  0  0  0
 45169  1  0  0  0  0
 45170  1  0  0  0  0
 46 47  1  0  0  0  0
 46171  1  0  0  0  0
 46172  1  0  0  0  0
 47 48  1  0  0  0  0
 47173  1  0  0  0  0
 47174  1  0  0  0  0
 48 49  1  0  0  0  0
 48175  1  0  0  0  0
 48176  1  0  0  0  0
 49 50  1  0  0  0  0
 49177  1  0  0  0  0
 49178  1  0  0  0  0
 50 51  1  0  0  0  0
 50179  1  0  0  0  0
 50180  1  0  0  0  0
 51 52  1  0  0  0  0
 51181  1  0  0  0  0
 51182  1  0  0  0  0
 52 53  1  0  0  0  0
 52183  1  0  0  0  0
 52184  1  0  0  0  0
 53 54  1  0  0  0  0
 53185  1  0  0  0  0
 53186  1  0  0  0  0
 54 55  1  0  0  0  0
 54187  1  0  0  0  0
 54188  1  0  0  0  0
 55 56  1  0  0  0  0
 55189  1  0  0  0  0
 55190  1  0  0  0  0
 56 57  1  0  0  0  0
 56191  1  0  0  0  0
 56192  1  0  0  0  0
 57 58  1  0  0  0  0
 57193  1  0  0  0  0
 57194  1  0  0  0  0
 58 59  1  0  0  0  0
 58195  1  0  0  0  0
 58196  1  0  0  0  0
 59 60  1  0  0  0  0
 59197  1  0  0  0  0
 59198  1  0  0  0  0
 60 61  1  0  0  0  0
 60199  1  0  0  0  0
 60200  1  0  0  0  0
 61 62  1  0  0  0  0
 61201  1  0  0  0  0
 61202  1  0  0  0  0
 62 63  1  0  0  0  0
 62203  1  0  0  0  0
 62204  1  0  0  0  0
 63 64  1  0  0  0  0
 63205  1  0  0  0  0
 63206  1  0  0  0  0
 64 65  1  0  0  0  0
 64207  1  0  0  0  0
 64208  1  0  0  0  0
 65 66  1  0  0  0  0
 65209  1  0  0  0  0
 65210  1  0  0  0  0
 66 67  1  0  0  0  0
 66211  1  0  0  0  0
 66212  1  0  0  0  0
 67 68  1  0  0  0  0
 67213  1  0  0  0  0
 67214  1  0  0  0  0
 68 69  1  0  0  0  0
 68215  1  0  0  0  0
 68216  1  0  0  0  0
 69 70  1  0  0  0  0
 69217  1  0  0  0  0
 69218  1  0  0  0  0
 70 71  1  0  0  0  0
 70219  1  0  0  0  0
 70220  1  0  0  0  0
 71 72  1  0  0  0  0
 71221  1  0  0  0  0
 71222  1  0  0  0  0
 72 73  1  0  0  0  0
 72223  1  0  0  0  0
 72224  1  0  0  0  0
 73 74  1  0  0  0  0
 73225  1  0  0  0  0
 73226  1  0  0  0  0
 74 75  1  0  0  0  0
 74227  1  0  0  0  0
 74228  1  0  0  0  0
 75 76  1  0  0  0  0
 75229  1  0  0  0  0
 75230  1  0  0  0  0
 76 77  1  0  0  0  0
 76231  1  0  0  0  0
 76232  1  0  0  0  0
 77 78  1  0  0  0  0
 77233  1  0  0  0  0
 77234  1  0  0  0  0
 78 79  1  0  0  0  0
 78235  1  0  0  0  0
 78236  1  0  0  0  0
 79237  1  0  0  0  0
 79238  1  0  0  0  0
 79239  1  0  0  0  0
M  END
$$$$
