
 OpenBabel04232216583D

 42 41  0  0  0  0  0  0  0  0999 V2000
    4.5655    1.0894   -5.4757 N   0  0  0  0  0  0  0  0  0  0  0  0
    5.9830    1.1128   -5.5033 N   0  0  0  0  0  0  0  0  0  0  0  0
    6.4715    2.4027   -5.8297 N   0  0  0  0  0  0  0  0  0  0  0  0
    6.0705    3.3779   -4.8635 N   0  0  0  0  0  0  0  0  0  0  0  0
    6.6160    3.0969   -3.5649 N   0  0  0  0  0  0  0  0  0  0  0  0
    8.0521    3.1133   -3.5753 N   0  0  0  0  0  0  0  0  0  0  0  0
    8.5572    4.4141   -3.9092 N   0  0  0  0  0  0  0  0  0  0  0  0
    8.1413    5.3939   -2.9454 N   0  0  0  0  0  0  0  0  0  0  0  0
    8.6446    5.0802   -1.6363 N   0  0  0  0  0  0  0  0  0  0  0  0
   10.0769    5.1763   -1.5705 N   0  0  0  0  0  0  0  0  0  0  0  0
   10.5200    6.4801   -1.9985 N   0  0  0  0  0  0  0  0  0  0  0  0
   10.0854    7.4807   -1.0223 C   0  0  0  0  0  0  0  0  0  0  0  0
   10.5283    8.8552   -1.4975 C   0  0  0  0  0  0  0  0  0  0  0  0
   10.0041    9.9229   -0.5414 C   0  0  0  0  0  0  0  0  0  0  0  0
   10.4717   11.3108   -0.9610 C   0  0  0  0  0  0  0  0  0  0  0  0
    9.9643   12.3689    0.0144 C   0  0  0  0  0  0  0  0  0  0  0  0
   10.4428   13.7533   -0.3904 C   0  0  0  0  0  0  0  0  0  0  0  0
    4.2272    0.2112   -5.0762 H   0  0  0  0  0  0  0  0  0  0  0  0
    4.1610    1.1583   -6.4095 H   0  0  0  0  0  0  0  0  0  0  0  0
    6.4107    0.3936   -6.1013 H   0  0  0  0  0  0  0  0  0  0  0  0
    6.1825    2.6992   -6.7665 H   0  0  0  0  0  0  0  0  0  0  0  0
    5.0445    3.3451   -4.7914 H   0  0  0  0  0  0  0  0  0  0  0  0
    6.2957    2.1576   -3.2984 H   0  0  0  0  0  0  0  0  0  0  0  0
    8.3656    2.4418   -4.2863 H   0  0  0  0  0  0  0  0  0  0  0  0
    8.1683    4.6693   -4.8256 H   0  0  0  0  0  0  0  0  0  0  0  0
    7.1126    5.3704   -2.9117 H   0  0  0  0  0  0  0  0  0  0  0  0
    8.3558    4.1200   -1.4168 H   0  0  0  0  0  0  0  0  0  0  0  0
   10.4541    4.4718   -2.2177 H   0  0  0  0  0  0  0  0  0  0  0  0
   10.0324    6.6696   -2.8799 H   0  0  0  0  0  0  0  0  0  0  0  0
   10.5169    7.2668   -0.0369 H   0  0  0  0  0  0  0  0  0  0  0  0
    8.9935    7.4902   -0.9195 H   0  0  0  0  0  0  0  0  0  0  0  0
   10.1447    9.0548   -2.5066 H   0  0  0  0  0  0  0  0  0  0  0  0
   11.6224    8.9014   -1.5486 H   0  0  0  0  0  0  0  0  0  0  0  0
   10.3494    9.7063    0.4758 H   0  0  0  0  0  0  0  0  0  0  0  0
    8.9071    9.8932   -0.5225 H   0  0  0  0  0  0  0  0  0  0  0  0
   10.1093   11.5319   -1.9725 H   0  0  0  0  0  0  0  0  0  0  0  0
   11.5674   11.3336   -0.9965 H   0  0  0  0  0  0  0  0  0  0  0  0
   10.3185   12.1430    1.0261 H   0  0  0  0  0  0  0  0  0  0  0  0
    8.8680   12.3547    0.0430 H   0  0  0  0  0  0  0  0  0  0  0  0
   11.5362   13.7942   -0.4038 H   0  0  0  0  0  0  0  0  0  0  0  0
   10.0784   14.5028    0.3190 H   0  0  0  0  0  0  0  0  0  0  0  0
   10.0750   14.0134   -1.3868 H   0  0  0  0  0  0  0  0  0  0  0  0
  1  2  1  0  0  0  0
  1 18  1  0  0  0  0
  1 19  1  0  0  0  0
  2  3  1  0  0  0  0
  2 20  1  0  0  0  0
  3  4  1  0  0  0  0
  3 21  1  0  0  0  0
  4  5  1  0  0  0  0
  4 22  1  0  0  0  0
  5  6  1  0  0  0  0
  5 23  1  0  0  0  0
  6  7  1  0  0  0  0
  6 24  1  0  0  0  0
  7  8  1  0  0  0  0
  7 25  1  0  0  0  0
  8  9  1  0  0  0  0
  8 26  1  0  0  0  0
  9 10  1  0  0  0  0
  9 27  1  0  0  0  0
 10 11  1  0  0  0  0
 10 28  1  0  0  0  0
 11 12  1  0  0  0  0
 11 29  1  0  0  0  0
 12 13  1  0  0  0  0
 12 30  1  0  0  0  0
 12 31  1  0  0  0  0
 13 14  1  0  0  0  0
 13 32  1  0  0  0  0
 13 33  1  0  0  0  0
 14 15  1  0  0  0  0
 14 34  1  0  0  0  0
 14 35  1  0  0  0  0
 15 16  1  0  0  0  0
 15 36  1  0  0  0  0
 15 37  1  0  0  0  0
 16 17  1  0  0  0  0
 16 38  1  0  0  0  0
 16 39  1  0  0  0  0
 17 40  1  0  0  0  0
 17 41  1  0  0  0  0
 17 42  1  0  0  0  0
M  END
$$$$
