
 OpenBabel04232216503D

 42 42  0  0  0  0  0  0  0  0999 V2000
    0.7858   -0.0260    0.0381 C   0  0  0  0  0  0  0  0  0  0  0  0
    2.3175    0.0191   -0.0775 C   0  0  0  0  0  0  0  0  0  0  0  0
    2.8255   -1.3237   -0.6580 C   0  0  0  0  0  0  0  0  0  0  0  0
    3.5454   -2.2077    0.3815 C   0  0  0  0  0  0  0  0  0  0  0  0
    5.0340   -1.8512    0.5300 C   0  0  0  0  0  0  0  0  0  0  0  0
    5.3855   -1.2562    1.8992 C   0  0  0  0  0  0  0  0  0  0  0  0
    6.6328   -0.3644    1.8176 C   0  0  0  0  0  0  0  0  0  0  0  0
    6.6101    0.7972    2.8275 C   0  0  0  0  0  0  0  0  0  0  0  0
    7.0387    2.1338    2.1988 C   0  0  0  0  0  0  0  0  0  0  0  0
    5.8694    3.0318    1.7647 C   0  0  0  0  0  0  0  0  0  0  0  0
    4.9244    2.3556    0.7734 C   0  0  0  0  0  0  0  0  0  0  0  0
    3.8363    3.2905    0.2440 C   0  0  0  0  0  0  0  0  0  0  0  0
    2.5588    2.5790   -0.2410 C   0  0  0  0  0  0  0  0  0  0  0  0
    2.7570    1.2216   -0.9468 C   0  0  0  0  0  0  0  0  0  0  0  0
    0.4671   -0.8957    0.6244 H   0  0  0  0  0  0  0  0  0  0  0  0
    0.3186   -0.0938   -0.9501 H   0  0  0  0  0  0  0  0  0  0  0  0
    0.3891    0.8641    0.5337 H   0  0  0  0  0  0  0  0  0  0  0  0
    2.7228    0.1504    0.9318 H   0  0  0  0  0  0  0  0  0  0  0  0
    3.4851   -1.1606   -1.5187 H   0  0  0  0  0  0  0  0  0  0  0  0
    1.9768   -1.8996   -1.0487 H   0  0  0  0  0  0  0  0  0  0  0  0
    3.4873   -3.2450    0.0250 H   0  0  0  0  0  0  0  0  0  0  0  0
    3.0186   -2.1871    1.3422 H   0  0  0  0  0  0  0  0  0  0  0  0
    5.3265   -1.1669   -0.2717 H   0  0  0  0  0  0  0  0  0  0  0  0
    5.6344   -2.7585    0.3888 H   0  0  0  0  0  0  0  0  0  0  0  0
    5.5584   -2.0644    2.6197 H   0  0  0  0  0  0  0  0  0  0  0  0
    4.5349   -0.6801    2.2740 H   0  0  0  0  0  0  0  0  0  0  0  0
    6.7448    0.0302    0.8022 H   0  0  0  0  0  0  0  0  0  0  0  0
    7.5228   -0.9790    1.9962 H   0  0  0  0  0  0  0  0  0  0  0  0
    7.3075    0.5516    3.6359 H   0  0  0  0  0  0  0  0  0  0  0  0
    5.6271    0.9086    3.3007 H   0  0  0  0  0  0  0  0  0  0  0  0
    7.7100    1.9668    1.3473 H   0  0  0  0  0  0  0  0  0  0  0  0
    7.6230    2.6953    2.9434 H   0  0  0  0  0  0  0  0  0  0  0  0
    6.2729    3.9510    1.3243 H   0  0  0  0  0  0  0  0  0  0  0  0
    5.3004    3.3310    2.6541 H   0  0  0  0  0  0  0  0  0  0  0  0
    4.4542    1.5053    1.2716 H   0  0  0  0  0  0  0  0  0  0  0  0
    5.5053    1.9720   -0.0737 H   0  0  0  0  0  0  0  0  0  0  0  0
    4.2507    3.8845   -0.5794 H   0  0  0  0  0  0  0  0  0  0  0  0
    3.5432    4.0109    1.0197 H   0  0  0  0  0  0  0  0  0  0  0  0
    2.0397    3.2621   -0.9257 H   0  0  0  0  0  0  0  0  0  0  0  0
    1.8956    2.4669    0.6236 H   0  0  0  0  0  0  0  0  0  0  0  0
    3.7973    1.1072   -1.2605 H   0  0  0  0  0  0  0  0  0  0  0  0
    2.1675    1.2217   -1.8762 H   0  0  0  0  0  0  0  0  0  0  0  0
  1  2  1  0  0  0  0
  1 15  1  0  0  0  0
  1 16  1  0  0  0  0
  1 17  1  0  0  0  0
  2  3  1  0  0  0  0
  2 14  1  0  0  0  0
  2 18  1  0  0  0  0
  3  4  1  0  0  0  0
  3 19  1  0  0  0  0
  3 20  1  0  0  0  0
  4  5  1  0  0  0  0
  4 21  1  0  0  0  0
  4 22  1  0  0  0  0
  5  6  1  0  0  0  0
  5 23  1  0  0  0  0
  5 24  1  0  0  0  0
  6  7  1  0  0  0  0
  6 25  1  0  0  0  0
  6 26  1  0  0  0  0
  7  8  1  0  0  0  0
  7 27  1  0  0  0  0
  7 28  1  0  0  0  0
  8  9  1  0  0  0  0
  8 29  1  0  0  0  0
  8 30  1  0  0  0  0
  9 10  1  0  0  0  0
  9 31  1  0  0  0  0
  9 32  1  0  0  0  0
 10 11  1  0  0  0  0
 10 33  1  0  0  0  0
 10 34  1  0  0  0  0
 11 12  1  0  0  0  0
 11 35  1  0  0  0  0
 11 36  1  0  0  0  0
 12 13  1  0  0  0  0
 12 37  1  0  0  0  0
 12 38  1  0  0  0  0
 13 14  1  0  0  0  0
 13 39  1  0  0  0  0
 13 40  1  0  0  0  0
 14 41  1  0  0  0  0
 14 42  1  0  0  0  0
M  END
$$$$
