
 OpenBabel04232216523D

 50 51  0  0  1  0  0  0  0  0999 V2000
    8.1269    2.2721    0.1970 C   0  0  0  0  0  0  0  0  0  0  0  0
    6.8938    2.3493   -0.7086 C   0  0  0  0  0  0  0  0  0  0  0  0
    6.3774    0.9648   -1.1425 C   0  0  0  0  0  0  0  0  0  0  0  0
    4.8518    0.9234   -1.4832 C   0  0  0  0  0  0  0  0  0  0  0  0
    4.2356    0.4543   -2.9527 C   0  0  3  0  0  0  0  0  0  0  0  0
    2.6097   -0.0194   -3.3516 C   0  0  3  0  0  3  0  0  0  0  0  0
    1.6622   -1.4627   -3.3115 C   0  0  0  0  0  0  0  0  0  0  0  0
    0.9247   -2.0648   -1.9248 C   0  0  0  0  0  0  0  0  0  0  0  0
    1.8449   -2.2313   -0.6990 C   0  0  0  0  0  0  0  0  0  0  0  0
    1.8189    0.9037   -2.5611 C   0  0  0  0  0  0  0  0  0  0  0  0
    2.1315    0.2992   -1.1669 C   0  0  3  0  0  0  0  0  0  0  0  0
    0.8768    0.3554   -0.4598 O   0  0  0  0  0  0  0  0  0  0  0  0
    2.9203   -1.2893   -1.1047 C   0  0  0  0  0  0  0  0  0  0  0  0
    3.9335   -2.0221   -1.7668 C   0  0  0  0  0  0  0  0  0  0  0  0
    4.8435   -1.8016   -2.9663 C   0  0  0  0  0  0  0  0  0  0  0  0
    5.2971   -2.9022   -3.9500 C   0  0  0  0  0  0  0  0  0  0  0  0
    5.1935   -4.0839   -3.6493 O   0  0  0  0  0  0  0  0  0  0  0  0
    5.8550   -2.4639   -5.3432 C   0  0  0  0  0  0  0  0  0  0  0  0
    6.0183   -3.5275   -6.4345 C   0  0  0  0  0  0  0  0  0  0  0  0
    6.6535   -2.9133   -7.6909 C   0  0  0  0  0  0  0  0  0  0  0  0
    5.0960   -0.5998   -3.4346 C   0  0  0  0  0  0  0  0  0  0  0  0
    8.6353    3.2425    0.2383 H   0  0  0  0  0  0  0  0  0  0  0  0
    8.8483    1.5264   -0.1502 H   0  0  0  0  0  0  0  0  0  0  0  0
    7.8428    2.0153    1.2250 H   0  0  0  0  0  0  0  0  0  0  0  0
    7.1438    2.9234   -1.6056 H   0  0  0  0  0  0  0  0  0  0  0  0
    6.1219    2.9082   -0.1667 H   0  0  0  0  0  0  0  0  0  0  0  0
    6.5357    0.2985   -0.2755 H   0  0  0  0  0  0  0  0  0  0  0  0
    7.0029    0.5556   -1.9387 H   0  0  0  0  0  0  0  0  0  0  0  0
    4.4033    1.8806   -1.2073 H   0  0  0  0  0  0  0  0  0  0  0  0
    4.5393    0.2202   -0.7078 H   0  0  0  0  0  0  0  0  0  0  0  0
    4.3757    1.3427   -3.5862 H   0  0  0  0  0  0  0  0  0  0  0  0
    2.1659   -2.2989   -3.8074 H   0  0  0  0  0  0  0  0  0  0  0  0
    0.7829   -1.2388   -3.9378 H   0  0  0  0  0  0  0  0  0  0  0  0
    0.4387   -3.0297   -2.1190 H   0  0  0  0  0  0  0  0  0  0  0  0
    0.0826   -1.4158   -1.6451 H   0  0  0  0  0  0  0  0  0  0  0  0
    2.1792   -3.2718   -0.6038 H   0  0  0  0  0  0  0  0  0  0  0  0
    1.4248   -1.9607    0.2764 H   0  0  0  0  0  0  0  0  0  0  0  0
    0.7691    0.8809   -2.8893 H   0  0  0  0  0  0  0  0  0  0  0  0
    2.1738    1.9267   -2.7265 H   0  0  0  0  0  0  0  0  0  0  0  0
    2.7070    1.0069   -0.5867 H   0  0  0  0  0  0  0  0  0  0  0  0
    0.3512    1.0846   -0.8403 H   0  0  0  0  0  0  0  0  0  0  0  0
    4.0179   -3.0826   -1.5124 H   0  0  0  0  0  0  0  0  0  0  0  0
    6.8289   -1.9883   -5.1723 H   0  0  0  0  0  0  0  0  0  0  0  0
    5.1609   -1.7208   -5.7466 H   0  0  0  0  0  0  0  0  0  0  0  0
    5.0368   -3.9410   -6.7093 H   0  0  0  0  0  0  0  0  0  0  0  0
    6.6406   -4.3514   -6.0706 H   0  0  0  0  0  0  0  0  0  0  0  0
    6.0458   -2.0954   -8.0982 H   0  0  0  0  0  0  0  0  0  0  0  0
    6.7654   -3.6660   -8.4802 H   0  0  0  0  0  0  0  0  0  0  0  0
    7.6501   -2.5103   -7.4747 H   0  0  0  0  0  0  0  0  0  0  0  0
    5.7537   -0.3293   -4.2656 H   0  0  0  0  0  0  0  0  0  0  0  0
  1  2  1  0  0  0  0
  1 22  1  0  0  0  0
  1 23  1  0  0  0  0
  1 24  1  0  0  0  0
  2  3  1  0  0  0  0
  2 25  1  0  0  0  0
  2 26  1  0  0  0  0
  3  4  1  0  0  0  0
  3 27  1  0  0  0  0
  3 28  1  0  0  0  0
  4  5  1  0  0  0  0
  4 29  1  0  0  0  0
  4 30  1  0  0  0  0
  5  6  1  0  0  0  0
  5 21  1  0  0  0  0
  5 31  1  0  0  0  0
  6  7  1  0  0  0  0
  6 10  1  0  0  0  0
  7  8  1  0  0  0  0
  7 32  1  0  0  0  0
  7 33  1  0  0  0  0
  8  9  1  0  0  0  0
  8 34  1  0  0  0  0
  8 35  1  0  0  0  0
  9 13  1  0  0  0  0
  9 36  1  0  0  0  0
  9 37  1  0  0  0  0
 10 11  1  0  0  0  0
 10 38  1  0  0  0  0
 10 39  1  0  0  0  0
 11 12  1  0  0  0  0
 11 13  1  0  0  0  0
 11 40  1  0  0  0  0
 12 41  1  0  0  0  0
 13 14  2  0  0  0  0
 14 15  1  0  0  0  0
 14 42  1  0  0  0  0
 15 16  1  0  0  0  0
 15 21  2  0  0  0  0
 16 17  2  0  0  0  0
 16 18  1  0  0  0  0
 18 19  1  0  0  0  0
 18 43  1  0  0  0  0
 18 44  1  0  0  0  0
 19 20  1  0  0  0  0
 19 45  1  0  0  0  0
 19 46  1  0  0  0  0
 20 47  1  0  0  0  0
 20 48  1  0  0  0  0
 20 49  1  0  0  0  0
 21 50  1  0  0  0  0
M  END
$$$$
