
 OpenBabel04232216433D

 46 47  0  0  0  0  0  0  0  0999 V2000
    6.7743   -1.4929    0.3700 C   0  0  0  0  0  0  0  0  0  0  0  0
    5.4510   -1.3586    0.3434 C   0  0  0  0  0  0  0  0  0  0  0  0
    4.4397   -1.9628    1.2169 C   0  0  0  0  0  0  0  0  0  0  0  0
    4.3406   -1.6497    2.5174 C   0  0  0  0  0  0  0  0  0  0  0  0
    4.8525   -2.8314    3.2902 C   0  0  0  0  0  0  0  0  0  0  0  0
    5.8694   -2.6189    4.0849 N   0  0  0  0  0  0  0  0  0  0  0  0
    6.6000   -3.7036    4.4510 C   0  0  0  0  0  0  0  0  0  0  0  0
    7.8792   -3.8983    4.2886 N   0  0  0  0  0  0  0  0  0  0  0  0
    8.6745   -3.0616    3.4748 N   0  0  0  0  0  0  0  0  0  0  0  0
    9.6769   -4.0575    2.4843 C   0  0  0  0  0  0  0  0  0  0  0  0
   10.6265   -3.7330    0.8761 C   0  0  0  0  0  0  0  0  0  0  0  0
   11.4001   -2.1618    0.2693 C   0  0  0  0  0  0  0  0  0  0  0  0
   10.7672   -1.1534   -0.3200 N   0  0  0  0  0  0  0  0  0  0  0  0
   10.2447    0.0583    0.3280 C   0  0  0  0  0  0  0  0  0  0  0  0
    9.2316    0.6101   -0.7449 C   0  0  0  0  0  0  0  0  0  0  0  0
    9.7854    0.4371    1.6236 C   0  0  0  0  0  0  0  0  0  0  0  0
    9.0216   -0.1619    3.0233 C   0  0  0  0  0  0  0  0  0  0  0  0
    8.6415   -1.3890    3.6963 C   0  0  0  0  0  0  0  0  0  0  0  0
   10.7045   -4.2263    3.3317 C   0  0  0  0  0  0  0  0  0  0  0  0
   11.3311   -2.9277    3.1545 C   0  0  0  0  0  0  0  0  0  0  0  0
   12.7751   -2.9443    3.5902 C   0  0  0  0  0  0  0  0  0  0  0  0
   10.6185   -1.9551    2.4285 C   0  0  0  0  0  0  0  0  0  0  0  0
    9.0603   -2.0166    1.3589 C   0  0  0  0  0  0  0  0  0  0  0  0
    7.6816   -2.1339    1.3591 C   0  0  0  0  0  0  0  0  0  0  0  0
    7.2683   -0.8903   -0.3431 H   0  0  0  0  0  0  0  0  0  0  0  0
    5.0198   -0.7673   -0.4511 H   0  0  0  0  0  0  0  0  0  0  0  0
    3.5197   -2.2870    0.7147 H   0  0  0  0  0  0  0  0  0  0  0  0
    4.9187   -0.7977    2.8878 H   0  0  0  0  0  0  0  0  0  0  0  0
    4.4787   -3.8363    3.0100 H   0  0  0  0  0  0  0  0  0  0  0  0
    6.0473   -4.5505    4.9130 H   0  0  0  0  0  0  0  0  0  0  0  0
   10.1109   -4.2119    0.0415 H   0  0  0  0  0  0  0  0  0  0  0  0
   11.5653   -4.3105    1.0132 H   0  0  0  0  0  0  0  0  0  0  0  0
   12.3723   -1.9370    0.7576 H   0  0  0  0  0  0  0  0  0  0  0  0
    9.6728    1.2429   -1.5138 H   0  0  0  0  0  0  0  0  0  0  0  0
    8.8101   -0.2440   -1.3070 H   0  0  0  0  0  0  0  0  0  0  0  0
    8.3673    1.1169   -0.2954 H   0  0  0  0  0  0  0  0  0  0  0  0
   10.0059    1.4937    1.8190 H   0  0  0  0  0  0  0  0  0  0  0  0
    8.6635    0.7524    3.5208 H   0  0  0  0  0  0  0  0  0  0  0  0
    8.0359   -1.3000    4.5951 H   0  0  0  0  0  0  0  0  0  0  0  0
   10.5660   -4.4725    4.3818 H   0  0  0  0  0  0  0  0  0  0  0  0
   13.3749   -2.1906    3.0775 H   0  0  0  0  0  0  0  0  0  0  0  0
   13.2295   -3.9107    3.3073 H   0  0  0  0  0  0  0  0  0  0  0  0
   12.9059   -2.8524    4.6733 H   0  0  0  0  0  0  0  0  0  0  0  0
   11.2000   -1.0291    2.3912 H   0  0  0  0  0  0  0  0  0  0  0  0
    9.2073   -1.9504    0.3064 H   0  0  0  0  0  0  0  0  0  0  0  0
    7.1013   -2.4262    2.1980 H   0  0  0  0  0  0  0  0  0  0  0  0
  1  2  2  3  0  0  0
  1 24  1  0  0  0  0
  1 25  1  0  0  0  0
  2  3  1  0  0  0  0
  2 26  1  0  0  0  0
  3  4  2  3  0  0  0
  3 27  1  0  0  0  0
  4  5  1  0  0  0  0
  4 28  1  0  0  0  0
  5  6  2  3  0  0  0
  5 29  1  0  0  0  0
  6  7  1  0  0  0  0
  7  8  2  3  0  0  0
  7 30  1  0  0  0  0
  8  9  1  0  0  0  0
  9 10  1  0  0  0  0
  9 18  1  0  0  0  0
 10 11  1  0  0  0  0
 10 19  2  3  0  0  0
 11 12  1  0  0  0  0
 11 31  1  0  0  0  0
 11 32  1  0  0  0  0
 12 13  2  3  0  0  0
 12 33  1  0  0  0  0
 13 14  1  0  0  0  0
 14 15  1  0  0  0  0
 14 16  2  3  0  0  0
 15 34  1  0  0  0  0
 15 35  1  0  0  0  0
 15 36  1  0  0  0  0
 16 17  1  0  0  0  0
 16 37  1  0  0  0  0
 17 18  2  3  0  0  0
 17 38  1  0  0  0  0
 18 39  1  0  0  0  0
 19 20  1  0  0  0  0
 19 40  1  0  0  0  0
 20 21  1  0  0  0  0
 20 22  2  3  0  0  0
 21 41  1  0  0  0  0
 21 42  1  0  0  0  0
 21 43  1  0  0  0  0
 22 23  1  0  0  0  0
 22 44  1  0  0  0  0
 23 24  2  3  0  0  0
 23 45  1  0  0  0  0
 24 46  1  0  0  0  0
M  END
$$$$
