
 OpenBabel04232217013D

132132  0  0  1  0  0  0  0  0999 V2000
   31.6882   13.7792    6.6206 O   0  0  0  0  0  0  0  0  0  0  0  0
   33.0137   13.8914    6.2368 N   0  0  0  0  0  0  0  0  0  0  0  0
   33.9081   12.9472    6.6769 C   0  0  0  0  0  0  0  0  0  0  0  0
   35.0484   13.4820    7.1236 C   0  0  0  0  0  0  0  0  0  0  0  0
   34.9237   14.9737    7.1270 C   0  0  0  0  0  0  0  0  0  0  0  0
   33.5860   15.2294    6.4077 C   0  0  3  0  0  0  0  0  0  0  0  0
   33.8287   15.8087    5.0248 C   0  0  0  0  0  0  0  0  0  0  0  0
   32.5692   16.0821    4.2670 C   0  0  0  0  0  0  0  0  0  0  0  0
   32.8730   16.5662    2.8678 C   0  0  0  0  0  0  0  0  0  0  0  0
   31.5832   16.8240    2.1296 C   0  0  0  0  0  0  0  0  0  0  0  0
   31.8740   17.3249    0.7299 C   0  0  0  0  0  0  0  0  0  0  0  0
   30.5573   17.5898    0.0457 C   0  0  0  0  0  0  0  0  0  0  0  0
   30.7841   18.1325   -1.3421 C   0  0  0  0  0  0  0  0  0  0  0  0
   29.4869   18.5313   -1.7915 O   0  0  0  0  0  0  0  0  0  0  0  0
   29.6703   19.1634   -3.0431 O   0  0  0  0  0  0  0  0  0  0  0  0
   28.7552   18.6034   -4.0005 O   0  0  0  0  0  0  0  0  0  0  0  0
   29.1050   19.0596   -5.3134 O   0  0  0  0  0  0  0  0  0  0  0  0
   28.0993   19.9534   -5.8349 O   0  0  0  0  0  0  0  0  0  0  0  0
   28.1745   19.9249   -7.2745 O   0  0  0  0  0  0  0  0  0  0  0  0
   26.9130   20.2684   -7.8796 O   0  0  0  0  0  0  0  0  0  0  0  0
   27.1293   21.2914   -8.8788 O   0  0  0  0  0  0  0  0  0  0  0  0
   25.9620   21.4515   -9.7163 O   0  0  0  0  0  0  0  0  0  0  0  0
   26.3366   21.3740  -11.1117 O   0  0  0  0  0  0  0  0  0  0  0  0
   25.1629   21.2907  -11.9560 O   0  0  0  0  0  0  0  0  0  0  0  0
   25.1578   22.3798  -12.9113 O   0  0  0  0  0  0  0  0  0  0  0  0
   23.8043   22.7205  -13.3019 O   0  0  0  0  0  0  0  0  0  0  0  0
   23.5990   22.4181  -14.7042 O   0  0  0  0  0  0  0  0  0  0  0  0
   22.2034   22.1172  -14.9902 O   0  0  0  0  0  0  0  0  0  0  0  0
   21.4703   23.3314  -15.3325 O   0  0  0  0  0  0  0  0  0  0  0  0
   20.6795   23.0316  -16.4814 C   0  0  0  0  0  0  0  0  0  0  0  0
   21.2343   23.4671  -17.7073 O   0  0  0  0  0  0  0  0  0  0  0  0
   22.0596   22.4875  -18.2977 C   0  0  0  0  0  0  0  0  0  0  0  0
   21.4369   21.5626  -19.1739 O   0  0  0  0  0  0  0  0  0  0  0  0
   20.3552   22.0528  -19.9789 C   0  0  0  0  0  0  0  0  0  0  0  0
   20.7390   22.2092  -21.3561 O   0  0  0  0  0  0  0  0  0  0  0  0
   19.9086   22.9987  -22.2148 C   0  0  0  0  0  0  0  0  0  0  0  0
   19.4481   24.2934  -21.8354 O   0  0  0  0  0  0  0  0  0  0  0  0
   20.3460   25.4127  -21.8797 C   0  0  0  0  0  0  0  0  0  0  0  0
   21.1149   25.6459  -23.0956 O   0  0  0  0  0  0  0  0  0  0  0  0
   21.9394   26.8371  -23.1173 C   0  0  0  0  0  0  0  0  0  0  0  0
   23.3792   26.8627  -22.7798 O   0  0  0  0  0  0  0  0  0  0  0  0
   24.3466   25.8766  -23.1893 C   0  0  0  0  0  0  0  0  0  0  0  0
   25.6635   25.8689  -22.4700 O   0  0  0  0  0  0  0  0  0  0  0  0
   25.6572   25.4420  -21.0871 C   0  0  0  0  0  0  0  0  0  0  0  0
   26.7258   24.6098  -20.5598 O   0  0  0  0  0  0  0  0  0  0  0  0
   26.5306   24.2754  -19.1359 C   0  0  0  0  0  0  0  0  0  0  0  0
   25.8388   23.0708  -18.8491 O   0  0  0  0  0  0  0  0  0  0  0  0
   25.6431   22.7915  -17.4365 C   0  0  0  0  0  0  0  0  0  0  0  0
   25.4321   23.9361  -16.5731 O   0  0  0  0  0  0  0  0  0  0  0  0
   24.1179   24.4803  -16.7565 C   0  0  0  0  0  0  0  0  0  0  0  0
   23.6440   25.3395  -15.7236 O   0  0  0  0  0  0  0  0  0  0  0  0
   23.5349   26.7264  -16.0238 C   0  0  0  0  0  0  0  0  0  0  0  0
   23.2908   27.1107  -17.3637 O   0  0  0  0  0  0  0  0  0  0  0  0
   21.9332   26.9612  -17.7792 C   0  0  0  0  0  0  0  0  0  0  0  0
   21.8142   27.0828  -19.1829 O   0  0  0  0  0  0  0  0  0  0  0  0
   22.8578   26.4683  -19.9217 C   0  0  0  0  0  0  0  0  0  0  0  0
   23.0999   25.0750  -19.7447 O   0  0  0  0  0  0  0  0  0  0  0  0
   22.8608   24.0868  -20.7807 C   0  0  0  0  0  0  0  0  0  0  0  0
   23.8528   23.0698  -20.5865 O   0  0  0  0  0  0  0  0  0  0  0  0
   24.2815   22.1479  -21.5733 C   0  0  0  0  0  0  0  0  0  0  0  0
   24.9784   22.7676  -22.6367 O   0  0  0  0  0  0  0  0  0  0  0  0
   25.7526   21.6993  -23.2509 O   0  0  0  0  0  0  0  0  0  0  0  0
   25.7898   21.8379  -24.6925 O   0  0  0  0  0  0  0  0  0  0  0  0
   24.4654   22.0634  -25.2283 O   0  0  0  0  0  0  0  0  0  0  0  0
   24.4422   23.2939  -25.9904 O   0  0  0  0  0  0  0  0  0  0  0  0
   23.1869   23.4108  -26.6894 O   0  0  0  0  0  0  0  0  0  0  0  0
   23.3729   23.3220  -28.1205 O   0  0  0  0  0  0  0  0  0  0  0  0
   22.2511   23.9541  -28.7742 O   0  0  0  0  0  0  0  0  0  0  0  0
   22.5733   24.3203  -30.1303 O   0  0  0  0  0  0  0  0  0  0  0  0
   21.3587   24.3841  -30.9081 O   0  0  0  0  0  0  0  0  0  0  0  0
   21.5991   25.0301  -32.1758 O   0  0  0  0  0  0  0  0  0  0  0  0
   20.3426   25.2458  -32.8510 O   0  0  0  0  0  0  0  0  0  0  0  0
   20.5290   25.3089  -34.2811 O   0  0  0  0  0  0  0  0  0  0  0  0
   19.4182   26.0170  -34.8792 O   0  0  0  0  0  0  0  0  0  0  0  0
   19.7132   26.3576  -36.2498 O   0  0  0  0  0  0  0  0  0  0  0  0
   18.5568   26.1289  -37.0901 O   0  0  0  0  0  0  0  0  0  0  0  0
   18.7148   26.8363  -38.3446 O   0  0  0  0  0  0  0  0  0  0  0  0
   17.4277   27.1990  -38.8982 O   0  0  0  0  0  0  0  0  0  0  0  0
   16.9022   28.3783  -38.2416 O   0  0  0  0  0  0  0  0  0  0  0  0
   31.4020   12.9713    6.1585 H   0  0  0  0  0  0  0  0  0  0  0  0
   33.6545   11.8977    6.5918 H   0  0  0  0  0  0  0  0  0  0  0  0
   35.8943   12.9320    7.4894 H   0  0  0  0  0  0  0  0  0  0  0  0
   35.7684   15.4602    6.6327 H   0  0  0  0  0  0  0  0  0  0  0  0
   34.8744   15.3430    8.1616 H   0  0  0  0  0  0  0  0  0  0  0  0
   32.9399   15.8947    7.0110 H   0  0  0  0  0  0  0  0  0  0  0  0
   34.4979   15.1620    4.4306 H   0  0  0  0  0  0  0  0  0  0  0  0
   34.3312   16.7315    5.0784 H   0  0  0  0  0  0  0  0  0  0  0  0
   31.9570   16.8182    4.8123 H   0  0  0  0  0  0  0  0  0  0  0  0
   31.9455   15.1602    4.2036 H   0  0  0  0  0  0  0  0  0  0  0  0
   33.4689   15.8210    2.3230 H   0  0  0  0  0  0  0  0  0  0  0  0
   33.4751   17.4804    2.9178 H   0  0  0  0  0  0  0  0  0  0  0  0
   30.9862   17.5674    2.6730 H   0  0  0  0  0  0  0  0  0  0  0  0
   30.9870   15.9043    2.0769 H   0  0  0  0  0  0  0  0  0  0  0  0
   32.4528   16.5828    0.1648 H   0  0  0  0  0  0  0  0  0  0  0  0
   32.4716   18.2407    0.7736 H   0  0  0  0  0  0  0  0  0  0  0  0
   29.9548   18.3012    0.6219 H   0  0  0  0  0  0  0  0  0  0  0  0
   29.9578   16.6709   -0.0140 H   0  0  0  0  0  0  0  0  0  0  0  0
   31.2145   17.3810   -2.0031 H   0  0  0  0  0  0  0  0  0  0  0  0
   31.4320   19.0187   -1.3134 H   0  0  0  0  0  0  0  0  0  0  0  0
   19.7532   23.6166  -16.3635 H   0  0  0  0  0  0  0  0  0  0  0  0
   20.4026   21.9831  -16.5359 H   0  0  0  0  0  0  0  0  0  0  0  0
   22.6406   21.9174  -17.5622 H   0  0  0  0  0  0  0  0  0  0  0  0
   22.8498   23.0312  -18.7842 H   0  0  0  0  0  0  0  0  0  0  0  0
   19.9150   22.9726  -19.5832 H   0  0  0  0  0  0  0  0  0  0  0  0
   19.6117   21.2565  -19.9386 H   0  0  0  0  0  0  0  0  0  0  0  0
   19.0072   22.3992  -22.4124 H   0  0  0  0  0  0  0  0  0  0  0  0
   20.4333   23.0922  -23.1655 H   0  0  0  0  0  0  0  0  0  0  0  0
   20.9797   25.3733  -21.0145 H   0  0  0  0  0  0  0  0  0  0  0  0
   19.7146   26.2910  -21.6836 H   0  0  0  0  0  0  0  0  0  0  0  0
   21.4792   27.5771  -22.4412 H   0  0  0  0  0  0  0  0  0  0  0  0
   21.8284   27.2928  -24.1070 H   0  0  0  0  0  0  0  0  0  0  0  0
   24.6095   26.1297  -24.2170 H   0  0  0  0  0  0  0  0  0  0  0  0
   23.9313   24.8700  -23.2407 H   0  0  0  0  0  0  0  0  0  0  0  0
   24.8187   24.8247  -21.0110 H   0  0  0  0  0  0  0  0  0  0  0  0
   25.5602   26.3167  -20.4481 H   0  0  0  0  0  0  0  0  0  0  0  0
   26.0291   25.1042  -18.6437 H   0  0  0  0  0  0  0  0  0  0  0  0
   27.5301   24.1707  -18.6935 H   0  0  0  0  0  0  0  0  0  0  0  0
   26.5247   22.2649  -17.0505 H   0  0  0  0  0  0  0  0  0  0  0  0
   24.8253   22.0672  -17.3186 H   0  0  0  0  0  0  0  0  0  0  0  0
   23.4440   23.6464  -16.7296 H   0  0  0  0  0  0  0  0  0  0  0  0
   24.0596   24.9372  -17.7341 H   0  0  0  0  0  0  0  0  0  0  0  0
   24.5013   27.1586  -15.7587 H   0  0  0  0  0  0  0  0  0  0  0  0
   22.7817   27.1724  -15.3655 H   0  0  0  0  0  0  0  0  0  0  0  0
   21.3282   27.7585  -17.3374 H   0  0  0  0  0  0  0  0  0  0  0  0
   21.5179   25.9926  -17.5040 H   0  0  0  0  0  0  0  0  0  0  0  0
   23.7920   26.9391  -19.5697 H   0  0  0  0  0  0  0  0  0  0  0  0
   22.7733   26.7811  -20.9056 H   0  0  0  0  0  0  0  0  0  0  0  0
   22.8476   24.4488  -21.8012 H   0  0  0  0  0  0  0  0  0  0  0  0
   21.8992   23.6940  -20.5680 H   0  0  0  0  0  0  0  0  0  0  0  0
   23.4903   21.4740  -21.9099 H   0  0  0  0  0  0  0  0  0  0  0  0
   25.0215   21.5385  -21.0345 H   0  0  0  0  0  0  0  0  0  0  0  0
   16.0124   28.3103  -38.6271 H   0  0  0  0  0  0  0  0  0  0  0  0
  1  2  1  0  0  0  0
  1 80  1  0  0  0  0
  2  3  1  0  0  0  0
  2  6  1  0  0  0  0
  3  4  2  0  0  0  0
  3 81  1  0  0  0  0
  4  5  1  0  0  0  0
  4 82  1  0  0  0  0
  5  6  1  0  0  0  0
  5 83  1  0  0  0  0
  5 84  1  0  0  0  0
  6  7  1  0  0  0  0
  6 85  1  0  0  0  0
  7  8  1  0  0  0  0
  7 86  1  0  0  0  0
  7 87  1  0  0  0  0
  8  9  1  0  0  0  0
  8 88  1  0  0  0  0
  8 89  1  0  0  0  0
  9 10  1  0  0  0  0
  9 90  1  0  0  0  0
  9 91  1  0  0  0  0
 10 11  1  0  0  0  0
 10 92  1  0  0  0  0
 10 93  1  0  0  0  0
 11 12  1  0  0  0  0
 11 94  1  0  0  0  0
 11 95  1  0  0  0  0
 12 13  1  0  0  0  0
 12 96  1  0  0  0  0
 12 97  1  0  0  0  0
 13 14  1  0  0  0  0
 13 98  1  0  0  0  0
 13 99  1  0  0  0  0
 14 15  1  0  0  0  0
 15 16  1  0  0  0  0
 16 17  1  0  0  0  0
 17 18  1  0  0  0  0
 18 19  1  0  0  0  0
 19 20  1  0  0  0  0
 20 21  1  0  0  0  0
 21 22  1  0  0  0  0
 22 23  1  0  0  0  0
 23 24  1  0  0  0  0
 24 25  1  0  0  0  0
 25 26  1  0  0  0  0
 26 27  1  0  0  0  0
 27 28  1  0  0  0  0
 28 29  1  0  0  0  0
 29 30  1  0  0  0  0
 30 31  1  0  0  0  0
 30100  1  0  0  0  0
 30101  1  0  0  0  0
 31 32  1  0  0  0  0
 32 33  1  0  0  0  0
 32102  1  0  0  0  0
 32103  1  0  0  0  0
 33 34  1  0  0  0  0
 34 35  1  0  0  0  0
 34104  1  0  0  0  0
 34105  1  0  0  0  0
 35 36  1  0  0  0  0
 36 37  1  0  0  0  0
 36106  1  0  0  0  0
 36107  1  0  0  0  0
 37 38  1  0  0  0  0
 38 39  1  0  0  0  0
 38108  1  0  0  0  0
 38109  1  0  0  0  0
 39 40  1  0  0  0  0
 40 41  1  0  0  0  0
 40110  1  0  0  0  0
 40111  1  0  0  0  0
 41 42  1  0  0  0  0
 42 43  1  0  0  0  0
 42112  1  0  0  0  0
 42113  1  0  0  0  0
 43 44  1  0  0  0  0
 44 45  1  0  0  0  0
 44114  1  0  0  0  0
 44115  1  0  0  0  0
 45 46  1  0  0  0  0
 46 47  1  0  0  0  0
 46116  1  0  0  0  0
 46117  1  0  0  0  0
 47 48  1  0  0  0  0
 48 49  1  0  0  0  0
 48118  1  0  0  0  0
 48119  1  0  0  0  0
 49 50  1  0  0  0  0
 50 51  1  0  0  0  0
 50120  1  0  0  0  0
 50121  1  0  0  0  0
 51 52  1  0  0  0  0
 52 53  1  0  0  0  0
 52122  1  0  0  0  0
 52123  1  0  0  0  0
 53 54  1  0  0  0  0
 54 55  1  0  0  0  0
 54124  1  0  0  0  0
 54125  1  0  0  0  0
 55 56  1  0  0  0  0
 56 57  1  0  0  0  0
 56126  1  0  0  0  0
 56127  1  0  0  0  0
 57 58  1  0  0  0  0
 58 59  1  0  0  0  0
 58128  1  0  0  0  0
 58129  1  0  0  0  0
 59 60  1  0  0  0  0
 60 61  1  0  0  0  0
 60130  1  0  0  0  0
 60131  1  0  0  0  0
 61 62  1  0  0  0  0
 62 63  1  0  0  0  0
 63 64  1  0  0  0  0
 64 65  1  0  0  0  0
 65 66  1  0  0  0  0
 66 67  1  0  0  0  0
 67 68  1  0  0  0  0
 68 69  1  0  0  0  0
 69 70  1  0  0  0  0
 70 71  1  0  0  0  0
 71 72  1  0  0  0  0
 72 73  1  0  0  0  0
 73 74  1  0  0  0  0
 74 75  1  0  0  0  0
 75 76  1  0  0  0  0
 76 77  1  0  0  0  0
 77 78  1  0  0  0  0
 78 79  1  0  0  0  0
 79132  1  0  0  0  0
M  END
$$$$
