
 OpenBabel04232216443D

 46 47  0  0  0  0  0  0  0  0999 V2000
   -3.7632   -0.1131    3.0435 C   0  0  0  0  0  0  0  0  0  0  0  0
   -4.7723   -0.5143    1.9469 C   0  0  0  0  0  0  0  0  0  0  0  0
   -3.7124   -0.3264    0.6695 C   0  0  0  0  0  0  0  0  0  0  0  0
   -2.9360    0.7898    0.3301 C   0  0  0  0  0  0  0  0  0  0  0  0
   -2.1338    1.1103   -0.9852 C   0  0  0  0  0  0  0  0  0  0  0  0
   -3.6813   -1.3188   -0.3789 C   0  0  0  0  0  0  0  0  0  0  0  0
   -4.6576   -1.1317   -1.2459 C   0  0  0  0  0  0  0  0  0  0  0  0
   -5.7976   -0.2024   -0.8492 C   0  0  0  0  0  0  0  0  0  0  0  0
   -5.7572    1.3407   -0.6158 C   0  0  0  0  0  0  0  0  0  0  0  0
   -6.8722   -0.5345   -0.2672 N   0  0  0  0  0  0  0  0  0  0  0  0
   -6.8028   -1.5471    0.6307 C   0  0  0  0  0  0  0  0  0  0  0  0
   -7.4051   -2.6538    0.3272 N   0  0  0  0  0  0  0  0  0  0  0  0
   -7.7072   -3.5175    1.3463 N   0  0  0  0  0  0  0  0  0  0  0  0
   -8.9679   -3.5145    1.7298 C   0  0  0  0  0  0  0  0  0  0  0  0
   -9.9987   -2.6215    0.9958 C   0  0  0  0  0  0  0  0  0  0  0  0
   -9.2879   -4.2226    2.9046 N   0  0  0  0  0  0  0  0  0  0  0  0
   -8.3108   -5.2364    3.3791 C   0  0  0  0  0  0  0  0  0  0  0  0
   -9.8018   -3.6569    4.0469 N   0  0  0  0  0  0  0  0  0  0  0  0
   -9.1873   -2.6030    4.5111 C   0  0  0  0  0  0  0  0  0  0  0  0
   -8.6063   -1.4104    3.6590 C   0  0  0  0  0  0  0  0  0  0  0  0
  -10.0708   -0.7813    3.5014 C   0  0  0  0  0  0  0  0  0  0  0  0
   -7.2371   -1.4295    3.2743 C   0  0  0  0  0  0  0  0  0  0  0  0
   -6.1710   -1.0075    2.0057 C   0  0  0  0  0  0  0  0  0  0  0  0
   -2.7917    0.2365    2.6291 H   0  0  0  0  0  0  0  0  0  0  0  0
   -4.0590    0.7528    3.6318 H   0  0  0  0  0  0  0  0  0  0  0  0
   -3.4129   -0.9775    3.6075 H   0  0  0  0  0  0  0  0  0  0  0  0
   -2.9656    1.6886    0.9417 H   0  0  0  0  0  0  0  0  0  0  0  0
   -1.0689    0.8533   -0.9148 H   0  0  0  0  0  0  0  0  0  0  0  0
   -2.1579    2.1942   -1.2064 H   0  0  0  0  0  0  0  0  0  0  0  0
   -2.5328    0.6474   -1.8974 H   0  0  0  0  0  0  0  0  0  0  0  0
   -2.8224   -2.0059   -0.4811 H   0  0  0  0  0  0  0  0  0  0  0  0
   -4.7368   -1.6800   -2.1823 H   0  0  0  0  0  0  0  0  0  0  0  0
   -6.2770    1.5002    0.3617 H   0  0  0  0  0  0  0  0  0  0  0  0
   -4.8103    1.8281   -0.4645 H   0  0  0  0  0  0  0  0  0  0  0  0
   -6.3465    1.8837   -1.3505 H   0  0  0  0  0  0  0  0  0  0  0  0
   -9.7488   -2.4532   -0.0564 H   0  0  0  0  0  0  0  0  0  0  0  0
   -9.9922   -1.6057    1.3851 H   0  0  0  0  0  0  0  0  0  0  0  0
  -11.0167   -3.0046    1.0547 H   0  0  0  0  0  0  0  0  0  0  0  0
   -7.3634   -5.2270    2.8443 H   0  0  0  0  0  0  0  0  0  0  0  0
   -8.7534   -6.2326    3.3560 H   0  0  0  0  0  0  0  0  0  0  0  0
   -8.0508   -5.0257    4.4298 H   0  0  0  0  0  0  0  0  0  0  0  0
   -9.5615   -2.3144    5.5235 H   0  0  0  0  0  0  0  0  0  0  0  0
  -10.2301    0.0575    2.8320 H   0  0  0  0  0  0  0  0  0  0  0  0
  -10.4862   -0.5017    4.4945 H   0  0  0  0  0  0  0  0  0  0  0  0
  -10.8364   -1.5448    3.2129 H   0  0  0  0  0  0  0  0  0  0  0  0
   -6.6668   -2.1859    3.8237 H   0  0  0  0  0  0  0  0  0  0  0  0
  1  2  1  0  0  0  0
  1 24  1  0  0  0  0
  1 25  1  0  0  0  0
  1 26  1  0  0  0  0
  2  3  1  0  0  0  0
  2 23  2  0  0  0  0
  3  4  2  3  0  0  0
  3  6  1  0  0  0  0
  4  5  1  0  0  0  0
  4 27  1  0  0  0  0
  5 28  1  0  0  0  0
  5 29  1  0  0  0  0
  5 30  1  0  0  0  0
  6  7  2  0  0  0  0
  6 31  1  0  0  0  0
  7  8  1  0  0  0  0
  7 32  1  0  0  0  0
  8  9  1  0  0  0  0
  8 10  2  0  0  0  0
  9 33  1  0  0  0  0
  9 34  1  0  0  0  0
  9 35  1  0  0  0  0
 10 11  1  0  0  0  0
 11 12  2  3  0  0  0
 11 23  1  0  0  0  0
 12 13  1  0  0  0  0
 13 14  2  3  0  0  0
 14 15  1  0  0  0  0
 14 16  1  0  0  0  0
 15 36  1  0  0  0  0
 15 37  1  0  0  0  0
 15 38  1  0  0  0  0
 16 17  1  0  0  0  0
 16 18  1  0  0  0  0
 17 39  1  0  0  0  0
 17 40  1  0  0  0  0
 17 41  1  0  0  0  0
 18 19  2  3  0  0  0
 19 20  1  0  0  0  0
 19 42  1  0  0  0  0
 20 21  1  0  0  0  0
 20 22  2  3  0  0  0
 21 43  1  0  0  0  0
 21 44  1  0  0  0  0
 21 45  1  0  0  0  0
 22 23  1  0  0  0  0
 22 46  1  0  0  0  0
M  END
$$$$
