
 OpenBabel04232216403D

 51 50  0  0  0  0  0  0  0  0999 V2000
    1.4492    0.4985   -0.7639 C   0  0  0  0  0  0  0  0  0  0  0  0
    2.3140   -0.0641    0.0961 C   0  0  0  0  0  0  0  0  0  0  0  0
    3.0977    0.7166    1.1033 C   0  0  0  0  0  0  0  0  0  0  0  0
    4.5384    0.5394    0.8851 N   0  0  0  0  0  0  0  0  0  0  0  0
    5.2540    1.3088    1.8881 N   0  0  0  0  0  0  0  0  0  0  0  0
    6.6897    1.1332    1.6591 C   0  0  0  0  0  0  0  0  0  0  0  0
    7.4580    1.9368    2.7025 C   0  0  0  0  0  0  0  0  0  0  0  0
    8.9616    1.7811    2.4990 C   0  0  0  0  0  0  0  0  0  0  0  0
    9.7165    2.5859    3.5481 C   0  0  0  0  0  0  0  0  0  0  0  0
   11.1511    2.4229    3.3414 N   0  0  0  0  0  0  0  0  0  0  0  0
   11.8861    3.1885    4.3419 C   0  0  0  0  0  0  0  0  0  0  0  0
   13.3815    3.0131    4.1164 C   0  0  0  0  0  0  0  0  0  0  0  0
   14.1588    3.8092    5.1580 C   0  0  0  0  0  0  0  0  0  0  0  0
   15.6583    3.6482    4.9522 C   0  0  0  0  0  0  0  0  0  0  0  0
   16.4302    4.4471    5.9960 C   0  0  0  0  0  0  0  0  0  0  0  0
   17.9312    4.2856    5.7900 C   0  0  0  0  0  0  0  0  0  0  0  0
   18.7148    5.0806    6.8293 C   0  0  0  0  0  0  0  0  0  0  0  0
   20.2090    4.9163    6.6204 C   0  0  0  0  0  0  0  0  0  0  0  0
    0.9000   -0.1023   -1.4779 H   0  0  0  0  0  0  0  0  0  0  0  0
    1.2751    1.5709   -0.7664 H   0  0  0  0  0  0  0  0  0  0  0  0
    2.4671   -1.1400    0.0733 H   0  0  0  0  0  0  0  0  0  0  0  0
    2.8235    0.3540    2.1024 H   0  0  0  0  0  0  0  0  0  0  0  0
    2.8380    1.7814    1.0520 H   0  0  0  0  0  0  0  0  0  0  0  0
    4.7628    0.9010   -0.0493 H   0  0  0  0  0  0  0  0  0  0  0  0
    5.0371    0.9701    2.8314 H   0  0  0  0  0  0  0  0  0  0  0  0
    6.9624    1.4877    0.6573 H   0  0  0  0  0  0  0  0  0  0  0  0
    6.9630    0.0736    1.7337 H   0  0  0  0  0  0  0  0  0  0  0  0
    7.1879    1.6004    3.7118 H   0  0  0  0  0  0  0  0  0  0  0  0
    7.1864    2.9981    2.6325 H   0  0  0  0  0  0  0  0  0  0  0  0
    9.2360    2.1218    1.4926 H   0  0  0  0  0  0  0  0  0  0  0  0
    9.2370    0.7210    2.5696 H   0  0  0  0  0  0  0  0  0  0  0  0
    9.4394    2.2309    4.5480 H   0  0  0  0  0  0  0  0  0  0  0  0
    9.4380    3.6440    3.4729 H   0  0  0  0  0  0  0  0  0  0  0  0
   11.4050    2.7442    2.4079 H   0  0  0  0  0  0  0  0  0  0  0  0
   11.6268    2.8377    5.3479 H   0  0  0  0  0  0  0  0  0  0  0  0
   11.6263    4.2519    4.2746 H   0  0  0  0  0  0  0  0  0  0  0  0
   13.6554    3.3544    3.1100 H   0  0  0  0  0  0  0  0  0  0  0  0
   13.6506    1.9514    4.1842 H   0  0  0  0  0  0  0  0  0  0  0  0
   13.8842    3.4691    6.1642 H   0  0  0  0  0  0  0  0  0  0  0  0
   13.8875    4.8700    5.0903 H   0  0  0  0  0  0  0  0  0  0  0  0
   15.9321    3.9888    3.9462 H   0  0  0  0  0  0  0  0  0  0  0  0
   15.9290    2.5876    5.0207 H   0  0  0  0  0  0  0  0  0  0  0  0
   16.1535    4.1065    7.0013 H   0  0  0  0  0  0  0  0  0  0  0  0
   16.1569    5.5071    5.9266 H   0  0  0  0  0  0  0  0  0  0  0  0
   18.2025    4.6249    4.7827 H   0  0  0  0  0  0  0  0  0  0  0  0
   18.1993    3.2240    5.8564 H   0  0  0  0  0  0  0  0  0  0  0  0
   18.4476    4.7419    7.8371 H   0  0  0  0  0  0  0  0  0  0  0  0
   18.4514    6.1427    6.7625 H   0  0  0  0  0  0  0  0  0  0  0  0
   20.5013    3.8649    6.7080 H   0  0  0  0  0  0  0  0  0  0  0  0
   20.7625    5.4893    7.3701 H   0  0  0  0  0  0  0  0  0  0  0  0
   20.5052    5.2732    5.6287 H   0  0  0  0  0  0  0  0  0  0  0  0
  1  2  2  0  0  0  0
  1 19  1  0  0  0  0
  1 20  1  0  0  0  0
  2  3  1  0  0  0  0
  2 21  1  0  0  0  0
  3  4  1  0  0  0  0
  3 22  1  0  0  0  0
  3 23  1  0  0  0  0
  4  5  1  0  0  0  0
  4 24  1  0  0  0  0
  5  6  1  0  0  0  0
  5 25  1  0  0  0  0
  6  7  1  0  0  0  0
  6 26  1  0  0  0  0
  6 27  1  0  0  0  0
  7  8  1  0  0  0  0
  7 28  1  0  0  0  0
  7 29  1  0  0  0  0
  8  9  1  0  0  0  0
  8 30  1  0  0  0  0
  8 31  1  0  0  0  0
  9 10  1  0  0  0  0
  9 32  1  0  0  0  0
  9 33  1  0  0  0  0
 10 11  1  0  0  0  0
 10 34  1  0  0  0  0
 11 12  1  0  0  0  0
 11 35  1  0  0  0  0
 11 36  1  0  0  0  0
 12 13  1  0  0  0  0
 12 37  1  0  0  0  0
 12 38  1  0  0  0  0
 13 14  1  0  0  0  0
 13 39  1  0  0  0  0
 13 40  1  0  0  0  0
 14 15  1  0  0  0  0
 14 41  1  0  0  0  0
 14 42  1  0  0  0  0
 15 16  1  0  0  0  0
 15 43  1  0  0  0  0
 15 44  1  0  0  0  0
 16 17  1  0  0  0  0
 16 45  1  0  0  0  0
 16 46  1  0  0  0  0
 17 18  1  0  0  0  0
 17 47  1  0  0  0  0
 17 48  1  0  0  0  0
 18 49  1  0  0  0  0
 18 50  1  0  0  0  0
 18 51  1  0  0  0  0
M  END
$$$$
