
 OpenBabel04232216463D

 47 47  0  0  0  0  0  0  0  0999 V2000
    8.4284    4.1067   -1.8546 C   0  0  0  0  0  0  0  0  0  0  0  0
    9.4217    3.9170   -0.7048 C   0  0  0  0  0  0  0  0  0  0  0  0
    8.5672    3.3489    0.2303 C   0  0  0  0  0  0  0  0  0  0  0  0
    7.1572    2.3562    0.4600 C   0  0  0  0  0  0  0  0  0  0  0  0
    6.4175    1.2700   -0.4479 C   0  0  0  0  0  0  0  0  0  0  0  0
    6.8175    1.9549    1.6599 N   0  0  0  0  0  0  0  0  0  0  0  0
    7.9852    1.6761    2.3330 C   0  0  0  0  0  0  0  0  0  0  0  0
    8.9265    0.7413    1.4980 C   0  0  0  0  0  0  0  0  0  0  0  0
    9.2852   -0.5972    2.0575 C   0  0  0  0  0  0  0  0  0  0  0  0
    8.1742    2.3996    3.3729 N   0  0  0  0  0  0  0  0  0  0  0  0
    9.4958    2.7683    3.5588 N   0  0  0  0  0  0  0  0  0  0  0  0
    9.5794    3.9945    3.2545 N   0  0  0  0  0  0  0  0  0  0  0  0
   10.8097    4.3183    2.7502 N   0  0  0  0  0  0  0  0  0  0  0  0
   11.5420    3.2544    2.0238 C   0  0  0  0  0  0  0  0  0  0  0  0
   10.9360    5.6516    2.4018 N   0  0  0  0  0  0  0  0  0  0  0  0
   11.9818    6.2096    2.9235 C   0  0  0  0  0  0  0  0  0  0  0  0
   12.3736    7.6358    2.6158 C   0  0  0  0  0  0  0  0  0  0  0  0
   13.4831    8.0419    3.1429 N   0  0  0  0  0  0  0  0  0  0  0  0
   14.0577    9.0909    2.4337 N   0  0  0  0  0  0  0  0  0  0  0  0
   15.2929    9.0260    2.6494 N   0  0  0  0  0  0  0  0  0  0  0  0
   16.0255    9.2027    1.4684 N   0  0  0  0  0  0  0  0  0  0  0  0
   16.2378    8.1832    0.7385 N   0  0  0  0  0  0  0  0  0  0  0  0
   15.7483    6.6338    1.2370 S   0  0  0  0  0  0  0  0  0  0  0  0
   14.7236    6.0323   -0.2246 C   0  0  0  0  0  0  0  0  0  0  0  0
   13.3663    5.7406    0.0310 C   0  0  0  0  0  0  0  0  0  0  0  0
   11.9645    4.8014   -0.5871 C   0  0  0  0  0  0  0  0  0  0  0  0
   10.6197    4.9610   -0.4420 N   0  0  0  0  0  0  0  0  0  0  0  0
    8.4648    5.0797   -2.3416 H   0  0  0  0  0  0  0  0  0  0  0  0
    7.3841    4.0952   -1.4611 H   0  0  0  0  0  0  0  0  0  0  0  0
    8.4386    3.2645   -2.5504 H   0  0  0  0  0  0  0  0  0  0  0  0
    8.6203    3.8989    1.1774 H   0  0  0  0  0  0  0  0  0  0  0  0
    5.3290    1.3715   -0.3931 H   0  0  0  0  0  0  0  0  0  0  0  0
    6.5155    0.2979    0.1030 H   0  0  0  0  0  0  0  0  0  0  0  0
    6.8033    1.0578   -1.4264 H   0  0  0  0  0  0  0  0  0  0  0  0
    9.8068    1.2828    1.1594 H   0  0  0  0  0  0  0  0  0  0  0  0
    8.4831    0.4594    0.5278 H   0  0  0  0  0  0  0  0  0  0  0  0
    9.7521   -0.4963    3.0358 H   0  0  0  0  0  0  0  0  0  0  0  0
    9.9843   -1.0845    1.3579 H   0  0  0  0  0  0  0  0  0  0  0  0
    8.3957   -1.2329    2.1304 H   0  0  0  0  0  0  0  0  0  0  0  0
   11.0856    2.2855    2.1737 H   0  0  0  0  0  0  0  0  0  0  0  0
   12.5523    3.1951    2.3956 H   0  0  0  0  0  0  0  0  0  0  0  0
   11.5237    3.3611    0.9537 H   0  0  0  0  0  0  0  0  0  0  0  0
   12.7243    5.6414    3.5062 H   0  0  0  0  0  0  0  0  0  0  0  0
   11.8002    8.1592    1.8273 H   0  0  0  0  0  0  0  0  0  0  0  0
   15.3624    5.5657   -0.9157 H   0  0  0  0  0  0  0  0  0  0  0  0
   13.0392    6.1983    0.9462 H   0  0  0  0  0  0  0  0  0  0  0  0
   12.4003    3.8544   -0.9343 H   0  0  0  0  0  0  0  0  0  0  0  0
  1  2  1  0  0  0  0
  1 28  1  0  0  0  0
  1 29  1  0  0  0  0
  1 30  1  0  0  0  0
  2  3  2  3  0  0  0
  2 27  1  0  0  0  0
  3  4  1  0  0  0  0
  3 31  1  0  0  0  0
  4  5  1  0  0  0  0
  4  6  2  3  0  0  0
  5 32  1  0  0  0  0
  5 33  1  0  0  0  0
  5 34  1  0  0  0  0
  6  7  1  0  0  0  0
  7  8  1  0  0  0  0
  7 10  2  3  0  0  0
  8  9  1  0  0  0  0
  8 35  1  0  0  0  0
  8 36  1  0  0  0  0
  9 37  1  0  0  0  0
  9 38  1  0  0  0  0
  9 39  1  0  0  0  0
 10 11  1  0  0  0  0
 11 12  2  3  0  0  0
 12 13  1  0  0  0  0
 13 14  1  0  0  0  0
 13 15  1  0  0  0  0
 14 40  1  0  0  0  0
 14 41  1  0  0  0  0
 14 42  1  0  0  0  0
 15 16  2  3  0  0  0
 16 17  1  0  0  0  0
 16 43  1  0  0  0  0
 17 18  2  3  0  0  0
 17 44  1  0  0  0  0
 18 19  1  0  0  0  0
 19 20  2  3  0  0  0
 20 21  1  0  0  0  0
 21 22  2  3  0  0  0
 22 23  1  0  0  0  0
 23 24  1  0  0  0  0
 24 25  2  3  0  0  0
 24 45  1  0  0  0  0
 25 26  1  0  0  0  0
 25 46  1  0  0  0  0
 26 27  2  3  0  0  0
 26 47  1  0  0  0  0
M  END
$$$$
