
 OpenBabel04232217023D

 96 95  0  0  0  0  0  0  0  0999 V2000
   13.2258   -9.5767    7.3326 O   0  0  0  0  0  0  0  0  0  0  0  0
   12.6864   -8.2373    7.5114 O   0  0  0  0  0  0  0  0  0  0  0  0
   13.1178   -7.4999    6.3748 C   0  0  0  0  0  0  0  0  0  0  0  0
   12.6067   -6.0671    6.4734 C   0  0  0  0  0  0  0  0  0  0  0  0
   13.1547   -5.3819    7.7286 C   0  0  0  0  0  0  0  0  0  0  0  0
   12.6686   -4.0075    7.8048 N   0  0  0  0  0  0  0  0  0  0  0  0
   13.1639   -3.4399    8.9863 N   0  0  0  0  0  0  0  0  0  0  0  0
   12.7047   -2.1128    9.0504 N   0  0  0  0  0  0  0  0  0  0  0  0
   13.1933   -1.4656   10.2114 N   0  0  0  0  0  0  0  0  0  0  0  0
   14.6543   -1.4018   10.2244 N   0  0  0  0  0  0  0  0  0  0  0  0
   15.1822   -0.6424    9.0464 N   0  0  0  0  0  0  0  0  0  0  0  0
   14.7517    0.7570    8.9804 N   0  0  0  0  0  0  0  0  0  0  0  0
   15.4104    1.4667    7.6325 S   0  0  0  0  0  0  0  0  0  0  0  0
   14.6842    3.3914    7.7690 S   0  0  0  0  0  0  0  0  0  0  0  0
   15.3892    4.2130    9.5413 S   0  0  0  0  0  0  0  0  0  0  0  0
   17.4694    4.2407    9.5138 S   0  0  0  0  0  0  0  0  0  0  0  0
   18.1397    5.0508   11.3357 S   0  0  0  0  0  0  0  0  0  0  0  0
   20.2468    5.0480   11.3291 S   0  0  0  0  0  0  0  0  0  0  0  0
   20.9355    5.8742   13.1433 S   0  0  0  0  0  0  0  0  0  0  0  0
   23.0457    5.8689   13.1319 S   0  0  0  0  0  0  0  0  0  0  0  0
   23.7371    6.6947   14.9460 S   0  0  0  0  0  0  0  0  0  0  0  0
   25.8469    6.6893   14.9341 S   0  0  0  0  0  0  0  0  0  0  0  0
   26.5377    7.5151   16.7483 S   0  0  0  0  0  0  0  0  0  0  0  0
   28.6472    7.5097   16.7363 S   0  0  0  0  0  0  0  0  0  0  0  0
   29.3379    8.3354   18.5504 S   0  0  0  0  0  0  0  0  0  0  0  0
   31.4473    8.3300   18.5383 S   0  0  0  0  0  0  0  0  0  0  0  0
   32.1379    9.1557   20.3524 S   0  0  0  0  0  0  0  0  0  0  0  0
   34.2473    9.1502   20.3403 S   0  0  0  0  0  0  0  0  0  0  0  0
   34.9379    9.9760   22.1544 S   0  0  0  0  0  0  0  0  0  0  0  0
   37.0473    9.9705   22.1423 S   0  0  0  0  0  0  0  0  0  0  0  0
   37.7379   10.7963   23.9564 S   0  0  0  0  0  0  0  0  0  0  0  0
   39.8473   10.7908   23.9443 S   0  0  0  0  0  0  0  0  0  0  0  0
   40.5379   11.6165   25.7584 S   0  0  0  0  0  0  0  0  0  0  0  0
   42.6473   11.6111   25.7464 S   0  0  0  0  0  0  0  0  0  0  0  0
   43.3379   12.4369   27.5605 S   0  0  0  0  0  0  0  0  0  0  0  0
   45.4473   12.4314   27.5484 S   0  0  0  0  0  0  0  0  0  0  0  0
   46.1379   13.2571   29.3624 S   0  0  0  0  0  0  0  0  0  0  0  0
   48.2473   13.2516   29.3503 S   0  0  0  0  0  0  0  0  0  0  0  0
   48.9379   14.0773   31.1644 S   0  0  0  0  0  0  0  0  0  0  0  0
   51.0473   14.0719   31.1523 S   0  0  0  0  0  0  0  0  0  0  0  0
   51.7379   14.8976   32.9663 S   0  0  0  0  0  0  0  0  0  0  0  0
   53.8473   14.8921   32.9543 S   0  0  0  0  0  0  0  0  0  0  0  0
   54.5379   15.7179   34.7683 S   0  0  0  0  0  0  0  0  0  0  0  0
   56.6473   15.7124   34.7563 S   0  0  0  0  0  0  0  0  0  0  0  0
   57.3379   16.5382   36.5703 S   0  0  0  0  0  0  0  0  0  0  0  0
   59.4472   16.5327   36.5583 S   0  0  0  0  0  0  0  0  0  0  0  0
   60.1379   17.3584   38.3723 S   0  0  0  0  0  0  0  0  0  0  0  0
   62.2472   17.3529   38.3602 S   0  0  0  0  0  0  0  0  0  0  0  0
   62.9379   18.1787   40.1743 S   0  0  0  0  0  0  0  0  0  0  0  0
   65.0472   18.1732   40.1622 S   0  0  0  0  0  0  0  0  0  0  0  0
   65.7379   18.9990   41.9763 S   0  0  0  0  0  0  0  0  0  0  0  0
   67.8472   18.9935   41.9642 S   0  0  0  0  0  0  0  0  0  0  0  0
   68.5378   19.8192   43.7783 S   0  0  0  0  0  0  0  0  0  0  0  0
   70.6472   19.8137   43.7662 S   0  0  0  0  0  0  0  0  0  0  0  0
   71.3378   20.6395   45.5803 S   0  0  0  0  0  0  0  0  0  0  0  0
   73.4472   20.6340   45.5682 S   0  0  0  0  0  0  0  0  0  0  0  0
   74.1378   21.4598   47.3823 S   0  0  0  0  0  0  0  0  0  0  0  0
   76.2472   21.4543   47.3702 S   0  0  0  0  0  0  0  0  0  0  0  0
   76.9378   22.2800   49.1842 S   0  0  0  0  0  0  0  0  0  0  0  0
   79.0472   22.2745   49.1722 S   0  0  0  0  0  0  0  0  0  0  0  0
   79.7378   23.1003   50.9862 S   0  0  0  0  0  0  0  0  0  0  0  0
   81.8472   23.0948   50.9742 S   0  0  0  0  0  0  0  0  0  0  0  0
   82.5378   23.9206   52.7882 S   0  0  0  0  0  0  0  0  0  0  0  0
   84.6472   23.9151   52.7762 S   0  0  0  0  0  0  0  0  0  0  0  0
   85.3378   24.7409   54.5902 S   0  0  0  0  0  0  0  0  0  0  0  0
   87.4472   24.7354   54.5782 S   0  0  0  0  0  0  0  0  0  0  0  0
   88.1378   25.5611   56.3922 S   0  0  0  0  0  0  0  0  0  0  0  0
   90.2471   25.5556   56.3801 S   0  0  0  0  0  0  0  0  0  0  0  0
   90.9377   26.3814   58.1942 S   0  0  0  0  0  0  0  0  0  0  0  0
   93.0471   26.3759   58.1821 S   0  0  0  0  0  0  0  0  0  0  0  0
   93.7375   27.2016   59.9960 S   0  0  0  0  0  0  0  0  0  0  0  0
   95.8466   27.1960   59.9838 S   0  0  0  0  0  0  0  0  0  0  0  0
   96.5365   28.0216   61.7974 S   0  0  0  0  0  0  0  0  0  0  0  0
   98.6444   28.0157   61.7844 S   0  0  0  0  0  0  0  0  0  0  0  0
   99.3324   28.8407   63.5966 S   0  0  0  0  0  0  0  0  0  0  0  0
  101.4364   28.8329   63.5802 S   0  0  0  0  0  0  0  0  0  0  0  0
  102.1181   29.6559   65.3879 S   0  0  0  0  0  0  0  0  0  0  0  0
  104.2097   29.6572   65.3530 S   0  0  0  0  0  0  0  0  0  0  0  0
  104.8789   30.4310   67.1651 S   0  0  0  0  0  0  0  0  0  0  0  0
  106.9556   30.4474   67.1119 S   0  0  0  0  0  0  0  0  0  0  0  0
  107.5470   28.4801   66.9693 S   0  0  0  0  0  0  0  0  0  0  0  0
   12.8098   -9.9444    8.1286 H   0  0  0  0  0  0  0  0  0  0  0  0
   12.7306   -7.9742    5.4647 H   0  0  0  0  0  0  0  0  0  0  0  0
   14.2137   -7.5104    6.3393 H   0  0  0  0  0  0  0  0  0  0  0  0
   11.5075   -6.0712    6.5050 H   0  0  0  0  0  0  0  0  0  0  0  0
   12.9005   -5.5102    5.5758 H   0  0  0  0  0  0  0  0  0  0  0  0
   14.2529   -5.3814    7.6818 H   0  0  0  0  0  0  0  0  0  0  0  0
   12.8586   -5.9462    8.6226 H   0  0  0  0  0  0  0  0  0  0  0  0
   11.6514   -4.0004    7.8882 H   0  0  0  0  0  0  0  0  0  0  0  0
   14.1811   -3.4654    8.9195 H   0  0  0  0  0  0  0  0  0  0  0  0
   11.6739   -2.1289    9.0435 H   0  0  0  0  0  0  0  0  0  0  0  0
   12.8699   -1.9748   11.0408 H   0  0  0  0  0  0  0  0  0  0  0  0
   14.9931   -2.3487   10.1911 H   0  0  0  0  0  0  0  0  0  0  0  0
   14.8433   -1.1276    8.1982 H   0  0  0  0  0  0  0  0  0  0  0  0
   15.0665    1.2448    9.8221 H   0  0  0  0  0  0  0  0  0  0  0  0
  108.8902   28.5858   66.9502 H   0  0  0  0  0  0  0  0  0  0  0  0
  1  2  1  0  0  0  0
  1 82  1  0  0  0  0
  2  3  1  0  0  0  0
  3  4  1  0  0  0  0
  3 83  1  0  0  0  0
  3 84  1  0  0  0  0
  4  5  1  0  0  0  0
  4 85  1  0  0  0  0
  4 86  1  0  0  0  0
  5  6  1  0  0  0  0
  5 87  1  0  0  0  0
  5 88  1  0  0  0  0
  6  7  1  0  0  0  0
  6 89  1  0  0  0  0
  7  8  1  0  0  0  0
  7 90  1  0  0  0  0
  8  9  1  0  0  0  0
  8 91  1  0  0  0  0
  9 10  1  0  0  0  0
  9 92  1  0  0  0  0
 10 11  1  0  0  0  0
 10 93  1  0  0  0  0
 11 12  1  0  0  0  0
 11 94  1  0  0  0  0
 12 13  1  0  0  0  0
 12 95  1  0  0  0  0
 13 14  1  0  0  0  0
 14 15  1  0  0  0  0
 15 16  1  0  0  0  0
 16 17  1  0  0  0  0
 17 18  1  0  0  0  0
 18 19  1  0  0  0  0
 19 20  1  0  0  0  0
 20 21  1  0  0  0  0
 21 22  1  0  0  0  0
 22 23  1  0  0  0  0
 23 24  1  0  0  0  0
 24 25  1  0  0  0  0
 25 26  1  0  0  0  0
 26 27  1  0  0  0  0
 27 28  1  0  0  0  0
 28 29  1  0  0  0  0
 29 30  1  0  0  0  0
 30 31  1  0  0  0  0
 31 32  1  0  0  0  0
 32 33  1  0  0  0  0
 33 34  1  0  0  0  0
 34 35  1  0  0  0  0
 35 36  1  0  0  0  0
 36 37  1  0  0  0  0
 37 38  1  0  0  0  0
 38 39  1  0  0  0  0
 39 40  1  0  0  0  0
 40 41  1  0  0  0  0
 41 42  1  0  0  0  0
 42 43  1  0  0  0  0
 43 44  1  0  0  0  0
 44 45  1  0  0  0  0
 45 46  1  0  0  0  0
 46 47  1  0  0  0  0
 47 48  1  0  0  0  0
 48 49  1  0  0  0  0
 49 50  1  0  0  0  0
 50 51  1  0  0  0  0
 51 52  1  0  0  0  0
 52 53  1  0  0  0  0
 53 54  1  0  0  0  0
 54 55  1  0  0  0  0
 55 56  1  0  0  0  0
 56 57  1  0  0  0  0
 57 58  1  0  0  0  0
 58 59  1  0  0  0  0
 59 60  1  0  0  0  0
 60 61  1  0  0  0  0
 61 62  1  0  0  0  0
 62 63  1  0  0  0  0
 63 64  1  0  0  0  0
 64 65  1  0  0  0  0
 65 66  1  0  0  0  0
 66 67  1  0  0  0  0
 67 68  1  0  0  0  0
 68 69  1  0  0  0  0
 69 70  1  0  0  0  0
 70 71  1  0  0  0  0
 71 72  1  0  0  0  0
 72 73  1  0  0  0  0
 73 74  1  0  0  0  0
 74 75  1  0  0  0  0
 75 76  1  0  0  0  0
 76 77  1  0  0  0  0
 77 78  1  0  0  0  0
 78 79  1  0  0  0  0
 79 80  1  0  0  0  0
 80 81  1  0  0  0  0
 81 96  1  0  0  0  0
M  END
$$$$
