
 OpenBabel04232217003D

162161  0  0  0  0  0  0  0  0999 V2000
    3.3184   -1.1911    0.7932 O   0  0  0  0  0  0  0  0  0  0  0  0
    4.1073   -0.5830    1.4894 C   0  0  0  0  0  0  0  0  0  0  0  0
    4.8531    0.6579    1.0707 C   0  0  0  0  0  0  0  0  0  0  0  0
    4.5100    1.0624   -0.3663 C   0  0  0  0  0  0  0  0  0  0  0  0
    5.2901    2.2852   -0.7873 C   0  0  0  0  0  0  0  0  0  0  0  0
    6.6657    1.9449   -0.7226 O   0  0  0  0  0  0  0  0  0  0  0  0
    7.3815    3.1496   -1.0492 O   0  0  0  0  0  0  0  0  0  0  0  0
    8.7964    2.8911   -0.9429 O   0  0  0  0  0  0  0  0  0  0  0  0
    9.4218    4.0915   -1.3478 C   0  0  0  0  0  0  0  0  0  0  0  0
   10.9100    3.8434   -1.2632 C   0  0  0  0  0  0  0  0  0  0  0  0
   11.6758    5.0825   -1.6704 C   0  0  0  0  0  0  0  0  0  0  0  0
   13.1663    4.8169   -1.5802 C   0  0  0  0  0  0  0  0  0  0  0  0
   13.9327    6.0609   -1.9873 C   0  0  0  0  0  0  0  0  0  0  0  0
   15.4215    5.7982   -1.9013 C   0  0  0  0  0  0  0  0  0  0  0  0
   16.1811    7.0450   -2.3094 C   0  0  0  0  0  0  0  0  0  0  0  0
   17.6860    6.7798   -2.2234 C   0  0  0  0  0  0  0  0  0  0  0  0
   18.4244    8.0054   -2.6410 C   0  0  0  0  0  0  0  0  0  0  0  0
   19.9458    7.7704   -2.5488 C   0  0  0  0  0  0  0  0  0  0  0  0
   20.6939    9.0151   -2.9609 C   0  0  0  0  0  0  0  0  0  0  0  0
   22.1831    8.7586   -2.8742 C   0  0  0  0  0  0  0  0  0  0  0  0
   22.9413   10.0012   -3.2847 C   0  0  0  0  0  0  0  0  0  0  0  0
   24.4374    9.7411   -3.1922 C   0  0  0  0  0  0  0  0  0  0  0  0
   25.1973   10.9903   -3.6136 C   0  0  0  0  0  0  0  0  0  0  0  0
   26.6870   10.7178   -3.5458 C   0  0  0  0  0  0  0  0  0  0  0  0
   27.4476   11.9987   -3.8844 C   0  0  0  0  0  0  0  0  0  0  0  0
   28.9552   11.7087   -3.8564 C   0  0  0  0  0  0  0  0  0  0  0  0
   29.7061   12.9598   -4.2631 C   0  0  0  0  0  0  0  0  0  0  0  0
   31.1990   12.7031   -4.1771 C   0  0  0  0  0  0  0  0  0  0  0  0
   31.9571   13.9446   -4.5876 C   0  0  0  0  0  0  0  0  0  0  0  0
   33.4509   13.6869   -4.5023 C   0  0  0  0  0  0  0  0  0  0  0  0
   34.2151   14.9329   -4.9139 C   0  0  0  0  0  0  0  0  0  0  0  0
   35.7069   14.6739   -4.8284 C   0  0  0  0  0  0  0  0  0  0  0  0
   36.4686   15.9193   -5.2380 C   0  0  0  0  0  0  0  0  0  0  0  0
   37.9600   15.6599   -5.1522 C   0  0  0  0  0  0  0  0  0  0  0  0
   38.7217   16.9055   -5.5618 C   0  0  0  0  0  0  0  0  0  0  0  0
   40.2131   16.6457   -5.4754 C   0  0  0  0  0  0  0  0  0  0  0  0
   40.9712   17.8906   -5.8872 C   0  0  0  0  0  0  0  0  0  0  0  0
   42.4501   17.6420   -5.8016 C   0  0  0  0  0  0  0  0  0  0  0  0
   43.2060   18.8808   -6.2147 C   0  0  0  0  0  0  0  0  0  0  0  0
   44.6915   18.6060   -6.1238 C   0  0  0  0  0  0  0  0  0  0  0  0
   45.4315   19.8545   -6.5365 C   0  0  0  0  0  0  0  0  0  0  0  0
   46.8982   19.5744   -6.4459 C   0  0  0  0  0  0  0  0  0  0  0  0
   47.6193   20.8115   -6.8556 C   0  0  0  0  0  0  0  0  0  0  0  0
   49.0809   20.5241   -6.7664 C   0  0  0  0  0  0  0  0  0  0  0  0
   49.7959   21.7372   -7.1664 C   0  0  0  0  0  0  0  0  0  0  0  0
   51.1192   21.3772   -7.0295 O   0  0  0  0  0  0  0  0  0  0  0  0
   51.7954   22.5373   -7.4223 O   0  0  0  0  0  0  0  0  0  0  0  0
   53.1434   22.2587   -7.4274 O   0  0  0  0  0  0  0  0  0  0  0  0
   53.7777   23.4746   -7.6839 O   0  0  0  0  0  0  0  0  0  0  0  0
   55.1402   23.2671   -7.4994 O   0  0  0  0  0  0  0  0  0  0  0  0
   55.7861   24.3135   -8.1588 O   0  0  0  0  0  0  0  0  0  0  0  0
   57.1393   24.0661   -8.0119 O   0  0  0  0  0  0  0  0  0  0  0  0
   57.8040   25.2724   -8.1628 O   0  0  0  0  0  0  0  0  0  0  0  0
   59.1369   24.9184   -8.3085 O   0  0  0  0  0  0  0  0  0  0  0  0
   59.8030   26.0453   -8.7326 O   0  0  0  0  0  0  0  0  0  0  0  0
   61.1256   25.8800   -8.3458 O   0  0  0  0  0  0  0  0  0  0  0  0
   61.7719   26.9800   -8.8607 O   0  0  0  0  0  0  0  0  0  0  0  0
   63.0875   26.6253   -9.0782 O   0  0  0  0  0  0  0  0  0  0  0  0
   63.7523   27.8370   -9.1247 O   0  0  0  0  0  0  0  0  0  0  0  0
   65.0920   27.5480   -9.0478 O   0  0  0  0  0  0  0  0  0  0  0  0
   65.7362   28.6434   -9.5843 O   0  0  0  0  0  0  0  0  0  0  0  0
   67.0663   28.4394   -9.2954 O   0  0  0  0  0  0  0  0  0  0  0  0
   67.7136   29.6020   -9.6383 O   0  0  0  0  0  0  0  0  0  0  0  0
   69.0383   29.2436   -9.7888 O   0  0  0  0  0  0  0  0  0  0  0  0
   69.6945   30.3893  -10.1773 O   0  0  0  0  0  0  0  0  0  0  0  0
   71.0210   30.1865   -9.8471 O   0  0  0  0  0  0  0  0  0  0  0  0
   71.6873   31.3284  -10.2351 O   0  0  0  0  0  0  0  0  0  0  0  0
   73.0128   30.9619  -10.3933 O   0  0  0  0  0  0  0  0  0  0  0  0
   73.6833   32.0977  -10.8131 O   0  0  0  0  0  0  0  0  0  0  0  0
   75.0105   31.9263  -10.4096 O   0  0  0  0  0  0  0  0  0  0  0  0
   75.6974   33.1114  -10.7180 O   0  0  0  0  0  0  0  0  0  0  0  0
   77.0220   32.7403  -10.9051 O   0  0  0  0  0  0  0  0  0  0  0  0
   77.7185   33.8447  -11.4684 O   0  0  0  0  0  0  0  0  0  0  0  0
   79.0868   33.6186  -11.2680 O   0  0  0  0  0  0  0  0  0  0  0  0
   79.7644   34.8667  -11.3578 O   0  0  0  0  0  0  0  0  0  0  0  0
   81.1517   34.5983  -11.2692 O   0  0  0  0  0  0  0  0  0  0  0  0
   81.8564   35.5362  -12.0902 O   0  0  0  0  0  0  0  0  0  0  0  0
   83.2760   35.3952  -11.8507 O   0  0  0  0  0  0  0  0  0  0  0  0
   83.9462   36.6303  -12.0698 O   0  0  0  0  0  0  0  0  0  0  0  0
   83.4812   37.6287  -11.1433 O   0  0  0  0  0  0  0  0  0  0  0  0
    4.3395   -0.9485    2.5277 H   0  0  0  0  0  0  0  0  0  0  0  0
    5.9276    0.4370    1.1745 H   0  0  0  0  0  0  0  0  0  0  0  0
    4.6044    1.4526    1.7692 H   0  0  0  0  0  0  0  0  0  0  0  0
    3.4364    1.2536   -0.4595 H   0  0  0  0  0  0  0  0  0  0  0  0
    4.7600    0.2317   -1.0315 H   0  0  0  0  0  0  0  0  0  0  0  0
    5.0850    3.1381   -0.1269 H   0  0  0  0  0  0  0  0  0  0  0  0
    5.0428    2.5661   -1.8169 H   0  0  0  0  0  0  0  0  0  0  0  0
    9.1221    4.9064   -0.6791 H   0  0  0  0  0  0  0  0  0  0  0  0
    9.1241    4.3391   -2.3735 H   0  0  0  0  0  0  0  0  0  0  0  0
   11.1792    2.9944   -1.9042 H   0  0  0  0  0  0  0  0  0  0  0  0
   11.1756    3.5433   -0.2415 H   0  0  0  0  0  0  0  0  0  0  0  0
   11.4049    5.9214   -1.0174 H   0  0  0  0  0  0  0  0  0  0  0  0
   11.4081    5.3683   -2.6951 H   0  0  0  0  0  0  0  0  0  0  0  0
   13.4377    3.9781   -2.2334 H   0  0  0  0  0  0  0  0  0  0  0  0
   13.4348    4.5291   -0.5563 H   0  0  0  0  0  0  0  0  0  0  0  0
   13.6593    6.8976   -1.3322 H   0  0  0  0  0  0  0  0  0  0  0  0
   13.6602    6.3470   -3.0107 H   0  0  0  0  0  0  0  0  0  0  0  0
   15.6945    4.9636   -2.5561 H   0  0  0  0  0  0  0  0  0  0  0  0
   15.6945    5.5136   -0.8787 H   0  0  0  0  0  0  0  0  0  0  0  0
   15.9141    7.8823   -1.6551 H   0  0  0  0  0  0  0  0  0  0  0  0
   15.9129    7.3348   -3.3308 H   0  0  0  0  0  0  0  0  0  0  0  0
   17.9449    5.9456   -2.8797 H   0  0  0  0  0  0  0  0  0  0  0  0
   17.9477    6.4981   -1.2013 H   0  0  0  0  0  0  0  0  0  0  0  0
   18.1648    8.8739   -1.9777 H   0  0  0  0  0  0  0  0  0  0  0  0
   18.1688    8.3138   -3.6547 H   0  0  0  0  0  0  0  0  0  0  0  0
   20.1981    6.9358   -3.2037 H   0  0  0  0  0  0  0  0  0  0  0  0
   20.2057    7.4894   -1.5269 H   0  0  0  0  0  0  0  0  0  0  0  0
   20.4218    9.8588   -2.3073 H   0  0  0  0  0  0  0  0  0  0  0  0
   20.4233    9.3031   -3.9853 H   0  0  0  0  0  0  0  0  0  0  0  0
   22.4596    7.9224   -3.5259 H   0  0  0  0  0  0  0  0  0  0  0  0
   22.4583    8.4757   -1.8495 H   0  0  0  0  0  0  0  0  0  0  0  0
   22.6777   10.8427   -2.6314 H   0  0  0  0  0  0  0  0  0  0  0  0
   22.6782   10.2898   -4.3066 H   0  0  0  0  0  0  0  0  0  0  0  0
   24.7145    8.9093   -3.8515 H   0  0  0  0  0  0  0  0  0  0  0  0
   24.7154    9.4647   -2.1778 H   0  0  0  0  0  0  0  0  0  0  0  0
   24.9309   11.8328   -2.9578 H   0  0  0  0  0  0  0  0  0  0  0  0
   24.9336   11.2750   -4.6334 H   0  0  0  0  0  0  0  0  0  0  0  0
   26.9635    9.8951   -4.1724 H   0  0  0  0  0  0  0  0  0  0  0  0
   26.9681   10.4488   -2.4960 H   0  0  0  0  0  0  0  0  0  0  0  0
   27.1951   12.8088   -3.2807 H   0  0  0  0  0  0  0  0  0  0  0  0
   27.1751   12.2690   -4.9552 H   0  0  0  0  0  0  0  0  0  0  0  0
   29.2122   10.8747   -4.5167 H   0  0  0  0  0  0  0  0  0  0  0  0
   29.2175   11.4272   -2.8403 H   0  0  0  0  0  0  0  0  0  0  0  0
   29.4320   13.7923   -3.6101 H   0  0  0  0  0  0  0  0  0  0  0  0
   29.4334   13.2462   -5.2888 H   0  0  0  0  0  0  0  0  0  0  0  0
   31.4652   11.8567   -4.8294 H   0  0  0  0  0  0  0  0  0  0  0  0
   31.4697   12.4173   -3.1532 H   0  0  0  0  0  0  0  0  0  0  0  0
   31.6882   14.7849   -3.9351 H   0  0  0  0  0  0  0  0  0  0  0  0
   31.6886   14.2310   -5.6121 H   0  0  0  0  0  0  0  0  0  0  0  0
   33.7253   12.8496   -5.1556 H   0  0  0  0  0  0  0  0  0  0  0  0
   33.7252   13.4037   -3.4787 H   0  0  0  0  0  0  0  0  0  0  0  0
   33.9429   15.7713   -4.2610 H   0  0  0  0  0  0  0  0  0  0  0  0
   33.9430   15.2172   -5.9379 H   0  0  0  0  0  0  0  0  0  0  0  0
   35.9796   13.8365   -5.4823 H   0  0  0  0  0  0  0  0  0  0  0  0
   35.9793   14.3886   -3.8047 H   0  0  0  0  0  0  0  0  0  0  0  0
   36.1965   16.7570   -4.5840 H   0  0  0  0  0  0  0  0  0  0  0  0
   36.1969   16.2050   -6.2616 H   0  0  0  0  0  0  0  0  0  0  0  0
   38.2331   14.8228   -5.8062 H   0  0  0  0  0  0  0  0  0  0  0  0
   38.2326   15.3748   -4.1286 H   0  0  0  0  0  0  0  0  0  0  0  0
   38.4490   17.7432   -4.9079 H   0  0  0  0  0  0  0  0  0  0  0  0
   38.4495   17.1911   -6.5856 H   0  0  0  0  0  0  0  0  0  0  0  0
   40.4854   15.8074   -6.1289 H   0  0  0  0  0  0  0  0  0  0  0  0
   40.4851   16.3615   -4.4515 H   0  0  0  0  0  0  0  0  0  0  0  0
   40.6968   18.7297   -5.2350 H   0  0  0  0  0  0  0  0  0  0  0  0
   40.6986   18.1739   -6.9109 H   0  0  0  0  0  0  0  0  0  0  0  0
   42.7345   16.8046   -6.4442 H   0  0  0  0  0  0  0  0  0  0  0  0
   42.7338   17.3565   -4.7872 H   0  0  0  0  0  0  0  0  0  0  0  0
   42.9328   19.7204   -5.5604 H   0  0  0  0  0  0  0  0  0  0  0  0
   42.9325   19.1627   -7.2415 H   0  0  0  0  0  0  0  0  0  0  0  0
   44.9647   17.7729   -6.7862 H   0  0  0  0  0  0  0  0  0  0  0  0
   44.9650   18.3322   -5.0953 H   0  0  0  0  0  0  0  0  0  0  0  0
   45.1641   20.6995   -5.8820 H   0  0  0  0  0  0  0  0  0  0  0  0
   45.1620   20.1445   -7.5646 H   0  0  0  0  0  0  0  0  0  0  0  0
   47.1809   18.7438   -7.1041 H   0  0  0  0  0  0  0  0  0  0  0  0
   47.1831   19.2980   -5.4234 H   0  0  0  0  0  0  0  0  0  0  0  0
   47.3591   21.6697   -6.2019 H   0  0  0  0  0  0  0  0  0  0  0  0
   47.3565   21.1134   -7.8898 H   0  0  0  0  0  0  0  0  0  0  0  0
   49.3723   19.6844   -7.4159 H   0  0  0  0  0  0  0  0  0  0  0  0
   49.3728   20.2376   -5.7407 H   0  0  0  0  0  0  0  0  0  0  0  0
   49.5770   22.6126   -6.5015 H   0  0  0  0  0  0  0  0  0  0  0  0
   49.5858   22.0476   -8.2103 H   0  0  0  0  0  0  0  0  0  0  0  0
   83.8313   38.3879  -11.6388 H   0  0  0  0  0  0  0  0  0  0  0  0
  1  2  2  0  0  0  0
  2  3  1  0  0  0  0
  2 81  1  0  0  0  0
  3  4  1  0  0  0  0
  3 82  1  0  0  0  0
  3 83  1  0  0  0  0
  4  5  1  0  0  0  0
  4 84  1  0  0  0  0
  4 85  1  0  0  0  0
  5  6  1  0  0  0  0
  5 86  1  0  0  0  0
  5 87  1  0  0  0  0
  6  7  1  0  0  0  0
  7  8  1  0  0  0  0
  8  9  1  0  0  0  0
  9 10  1  0  0  0  0
  9 88  1  0  0  0  0
  9 89  1  0  0  0  0
 10 11  1  0  0  0  0
 10 90  1  0  0  0  0
 10 91  1  0  0  0  0
 11 12  1  0  0  0  0
 11 92  1  0  0  0  0
 11 93  1  0  0  0  0
 12 13  1  0  0  0  0
 12 94  1  0  0  0  0
 12 95  1  0  0  0  0
 13 14  1  0  0  0  0
 13 96  1  0  0  0  0
 13 97  1  0  0  0  0
 14 15  1  0  0  0  0
 14 98  1  0  0  0  0
 14 99  1  0  0  0  0
 15 16  1  0  0  0  0
 15100  1  0  0  0  0
 15101  1  0  0  0  0
 16 17  1  0  0  0  0
 16102  1  0  0  0  0
 16103  1  0  0  0  0
 17 18  1  0  0  0  0
 17104  1  0  0  0  0
 17105  1  0  0  0  0
 18 19  1  0  0  0  0
 18106  1  0  0  0  0
 18107  1  0  0  0  0
 19 20  1  0  0  0  0
 19108  1  0  0  0  0
 19109  1  0  0  0  0
 20 21  1  0  0  0  0
 20110  1  0  0  0  0
 20111  1  0  0  0  0
 21 22  1  0  0  0  0
 21112  1  0  0  0  0
 21113  1  0  0  0  0
 22 23  1  0  0  0  0
 22114  1  0  0  0  0
 22115  1  0  0  0  0
 23 24  1  0  0  0  0
 23116  1  0  0  0  0
 23117  1  0  0  0  0
 24 25  1  0  0  0  0
 24118  1  0  0  0  0
 24119  1  0  0  0  0
 25 26  1  0  0  0  0
 25120  1  0  0  0  0
 25121  1  0  0  0  0
 26 27  1  0  0  0  0
 26122  1  0  0  0  0
 26123  1  0  0  0  0
 27 28  1  0  0  0  0
 27124  1  0  0  0  0
 27125  1  0  0  0  0
 28 29  1  0  0  0  0
 28126  1  0  0  0  0
 28127  1  0  0  0  0
 29 30  1  0  0  0  0
 29128  1  0  0  0  0
 29129  1  0  0  0  0
 30 31  1  0  0  0  0
 30130  1  0  0  0  0
 30131  1  0  0  0  0
 31 32  1  0  0  0  0
 31132  1  0  0  0  0
 31133  1  0  0  0  0
 32 33  1  0  0  0  0
 32134  1  0  0  0  0
 32135  1  0  0  0  0
 33 34  1  0  0  0  0
 33136  1  0  0  0  0
 33137  1  0  0  0  0
 34 35  1  0  0  0  0
 34138  1  0  0  0  0
 34139  1  0  0  0  0
 35 36  1  0  0  0  0
 35140  1  0  0  0  0
 35141  1  0  0  0  0
 36 37  1  0  0  0  0
 36142  1  0  0  0  0
 36143  1  0  0  0  0
 37 38  1  0  0  0  0
 37144  1  0  0  0  0
 37145  1  0  0  0  0
 38 39  1  0  0  0  0
 38146  1  0  0  0  0
 38147  1  0  0  0  0
 39 40  1  0  0  0  0
 39148  1  0  0  0  0
 39149  1  0  0  0  0
 40 41  1  0  0  0  0
 40150  1  0  0  0  0
 40151  1  0  0  0  0
 41 42  1  0  0  0  0
 41152  1  0  0  0  0
 41153  1  0  0  0  0
 42 43  1  0  0  0  0
 42154  1  0  0  0  0
 42155  1  0  0  0  0
 43 44  1  0  0  0  0
 43156  1  0  0  0  0
 43157  1  0  0  0  0
 44 45  1  0  0  0  0
 44158  1  0  0  0  0
 44159  1  0  0  0  0
 45 46  1  0  0  0  0
 45160  1  0  0  0  0
 45161  1  0  0  0  0
 46 47  1  0  0  0  0
 47 48  1  0  0  0  0
 48 49  1  0  0  0  0
 49 50  1  0  0  0  0
 50 51  1  0  0  0  0
 51 52  1  0  0  0  0
 52 53  1  0  0  0  0
 53 54  1  0  0  0  0
 54 55  1  0  0  0  0
 55 56  1  0  0  0  0
 56 57  1  0  0  0  0
 57 58  1  0  0  0  0
 58 59  1  0  0  0  0
 59 60  1  0  0  0  0
 60 61  1  0  0  0  0
 61 62  1  0  0  0  0
 62 63  1  0  0  0  0
 63 64  1  0  0  0  0
 64 65  1  0  0  0  0
 65 66  1  0  0  0  0
 66 67  1  0  0  0  0
 67 68  1  0  0  0  0
 68 69  1  0  0  0  0
 69 70  1  0  0  0  0
 70 71  1  0  0  0  0
 71 72  1  0  0  0  0
 72 73  1  0  0  0  0
 73 74  1  0  0  0  0
 74 75  1  0  0  0  0
 75 76  1  0  0  0  0
 76 77  1  0  0  0  0
 77 78  1  0  0  0  0
 78 79  1  0  0  0  0
 79 80  1  0  0  0  0
 80162  1  0  0  0  0
M  END
$$$$
