
 OpenBabel04232216403D

 47 49  0  0  0  0  0  0  0  0999 V2000
    3.0386   -0.0092   -2.2092 C   0  0  0  0  0  0  0  0  0  0  0  0
    3.1829   -1.2628   -2.6617 C   0  0  0  0  0  0  0  0  0  0  0  0
    4.4490   -2.0771   -2.7107 C   0  0  0  0  0  0  0  0  0  0  0  0
    5.5028   -1.5275   -1.8487 N   0  0  0  0  0  0  0  0  0  0  0  0
    5.6525   -2.1167   -0.5794 C   0  0  0  0  0  0  0  0  0  0  0  0
    6.8866   -2.2373   -0.0544 C   0  0  0  0  0  0  0  0  0  0  0  0
    7.9443   -3.1480   -0.7299 C   0  0  0  0  0  0  0  0  0  0  0  0
    9.3915   -2.6257   -0.7757 C   0  0  0  0  0  0  0  0  0  0  0  0
   10.0341   -2.4123    0.5867 C   0  0  0  0  0  0  0  0  0  0  0  0
   10.8066   -3.6320    1.0425 C   0  0  0  0  0  0  0  0  0  0  0  0
    9.9536   -4.8839    1.2429 C   0  0  0  0  0  0  0  0  0  0  0  0
    9.1351   -5.3520    0.0308 C   0  0  0  0  0  0  0  0  0  0  0  0
    7.8303   -4.5803   -0.1649 C   0  0  0  0  0  0  0  0  0  0  0  0
    7.3065   -1.1046    0.5933 N   0  0  0  0  0  0  0  0  0  0  0  0
    7.4591   -0.0740   -0.2111 C   0  0  0  0  0  0  0  0  0  0  0  0
    8.0568    1.1746    0.3923 C   0  0  0  0  0  0  0  0  0  0  0  0
    7.5888    1.6806    1.3991 O   0  0  0  0  0  0  0  0  0  0  0  0
    9.2178    1.5582   -0.2766 N   0  0  0  0  0  0  0  0  0  0  0  0
   10.1843    2.3566    0.4596 C   0  0  0  0  0  0  0  0  0  0  0  0
    9.4922    1.1433   -1.5715 C   0  0  0  0  0  0  0  0  0  0  0  0
    8.6393    0.4362   -2.3326 C   0  0  0  0  0  0  0  0  0  0  0  0
    7.4059   -0.1631   -1.7328 C   0  0  0  0  0  0  0  0  0  0  0  0
    6.5235   -0.7981   -2.4664 N   0  0  0  0  0  0  0  0  0  0  0  0
    2.0679    0.4747   -2.2030 H   0  0  0  0  0  0  0  0  0  0  0  0
    3.8862    0.5571   -1.8363 H   0  0  0  0  0  0  0  0  0  0  0  0
    2.2953   -1.7826   -3.0174 H   0  0  0  0  0  0  0  0  0  0  0  0
    4.7942   -2.1873   -3.7488 H   0  0  0  0  0  0  0  0  0  0  0  0
    4.1976   -3.0894   -2.3647 H   0  0  0  0  0  0  0  0  0  0  0  0
    4.9014   -1.5910    0.0189 H   0  0  0  0  0  0  0  0  0  0  0  0
    7.6556   -3.2314   -1.7896 H   0  0  0  0  0  0  0  0  0  0  0  0
    9.4296   -1.6908   -1.3253 H   0  0  0  0  0  0  0  0  0  0  0  0
   10.0102   -3.2870   -1.3951 H   0  0  0  0  0  0  0  0  0  0  0  0
    9.3086   -2.1467    1.3589 H   0  0  0  0  0  0  0  0  0  0  0  0
   10.7229   -1.5616    0.5150 H   0  0  0  0  0  0  0  0  0  0  0  0
   11.2877   -3.3860    1.9994 H   0  0  0  0  0  0  0  0  0  0  0  0
   11.6166   -3.8367    0.3337 H   0  0  0  0  0  0  0  0  0  0  0  0
    9.2837   -4.7326    2.0982 H   0  0  0  0  0  0  0  0  0  0  0  0
   10.6377   -5.6936    1.5251 H   0  0  0  0  0  0  0  0  0  0  0  0
    8.8620   -6.4051    0.2228 H   0  0  0  0  0  0  0  0  0  0  0  0
    9.7432   -5.3676   -0.8766 H   0  0  0  0  0  0  0  0  0  0  0  0
    7.2651   -4.5879    0.7755 H   0  0  0  0  0  0  0  0  0  0  0  0
    7.2162   -5.1556   -0.8728 H   0  0  0  0  0  0  0  0  0  0  0  0
    9.6902    2.9582    1.2295 H   0  0  0  0  0  0  0  0  0  0  0  0
   10.7383    3.0166   -0.2104 H   0  0  0  0  0  0  0  0  0  0  0  0
   10.8790    1.6718    0.9610 H   0  0  0  0  0  0  0  0  0  0  0  0
   10.4553    1.4508   -1.9738 H   0  0  0  0  0  0  0  0  0  0  0  0
    8.8806    0.1407   -3.3469 H   0  0  0  0  0  0  0  0  0  0  0  0
  1  2  2  0  0  0  0
  1 24  1  0  0  0  0
  1 25  1  0  0  0  0
  2  3  1  0  0  0  0
  2 26  1  0  0  0  0
  3  4  1  0  0  0  0
  3 27  1  0  0  0  0
  3 28  1  0  0  0  0
  4  5  1  0  0  0  0
  4 23  1  0  0  0  0
  5  6  2  0  0  0  0
  5 29  1  0  0  0  0
  6  7  1  0  0  0  0
  6 14  1  0  0  0  0
  7  8  1  0  0  0  0
  7 13  1  0  0  0  0
  7 30  1  0  0  0  0
  8  9  1  0  0  0  0
  8 31  1  0  0  0  0
  8 32  1  0  0  0  0
  9 10  1  0  0  0  0
  9 33  1  0  0  0  0
  9 34  1  0  0  0  0
 10 11  1  0  0  0  0
 10 35  1  0  0  0  0
 10 36  1  0  0  0  0
 11 12  1  0  0  0  0
 11 37  1  0  0  0  0
 11 38  1  0  0  0  0
 12 13  1  0  0  0  0
 12 39  1  0  0  0  0
 12 40  1  0  0  0  0
 13 41  1  0  0  0  0
 13 42  1  0  0  0  0
 14 15  2  0  0  0  0
 15 16  1  0  0  0  0
 15 22  1  0  0  0  0
 16 17  2  0  0  0  0
 16 18  1  0  0  0  0
 18 19  1  0  0  0  0
 18 20  1  0  0  0  0
 19 43  1  0  0  0  0
 19 44  1  0  0  0  0
 19 45  1  0  0  0  0
 20 21  2  0  0  0  0
 20 46  1  0  0  0  0
 21 22  1  0  0  0  0
 21 47  1  0  0  0  0
 22 23  2  0  0  0  0
M  END
$$$$
