
 OpenBabel04232216493D

 56 57  0  0  0  0  0  0  0  0999 V2000
    5.0907    0.5816   -1.4899 C   0  0  0  0  0  0  0  0  0  0  0  0
    6.1617   -0.6072   -1.6717 C   0  0  0  0  0  0  0  0  0  0  0  0
    5.2020   -1.5237   -1.0423 C   0  0  0  0  0  0  0  0  0  0  0  0
    4.9610   -1.5838    0.2879 C   0  0  0  0  0  0  0  0  0  0  0  0
    5.0820   -2.9423    0.7308 C   0  0  0  0  0  0  0  0  0  0  0  0
    4.6012   -4.0656    0.1347 C   0  0  0  0  0  0  0  0  0  0  0  0
    3.2918   -3.9869   -0.7467 N   0  0  0  0  0  0  0  0  0  0  0  0
    1.7606   -4.3941   -0.5189 C   0  0  0  0  0  0  0  0  0  0  0  0
    0.6295   -5.3518   -1.2613 C   0  0  0  0  0  0  0  0  0  0  0  0
    0.5009   -6.8909   -1.6709 C   0  0  0  0  0  0  0  0  0  0  0  0
   -0.5377   -7.5338   -1.5272 O   0  0  0  0  0  0  0  0  0  0  0  0
    1.5554   -7.4951   -2.3097 N   0  0  0  0  0  0  0  0  0  0  0  0
    2.6897   -6.7573   -2.1033 C   0  0  0  0  0  0  0  0  0  0  0  0
    4.0738   -7.2430   -2.3492 C   0  0  0  0  0  0  0  0  0  0  0  0
    4.6650   -5.9594   -1.9042 C   0  0  0  0  0  0  0  0  0  0  0  0
    5.9992   -5.8846   -1.4053 C   0  0  0  0  0  0  0  0  0  0  0  0
    5.9798   -4.9277   -0.2666 C   0  0  0  0  0  0  0  0  0  0  0  0
    7.2475   -4.8225    0.2277 C   0  0  0  0  0  0  0  0  0  0  0  0
    8.5267   -5.3710   -0.3177 C   0  0  0  0  0  0  0  0  0  0  0  0
    8.7651   -6.4444   -1.3938 C   0  0  0  0  0  0  0  0  0  0  0  0
    9.5979   -4.6610    0.0829 C   0  0  0  0  0  0  0  0  0  0  0  0
   10.7238   -4.4477   -0.7671 C   0  0  0  0  0  0  0  0  0  0  0  0
   10.7376   -3.4382   -1.6617 C   0  0  0  0  0  0  0  0  0  0  0  0
    9.6726   -2.4753   -2.1687 C   0  0  0  0  0  0  0  0  0  0  0  0
    8.5978   -1.7526   -1.7439 C   0  0  0  0  0  0  0  0  0  0  0  0
    7.4199   -0.9601   -1.1831 C   0  0  0  0  0  0  0  0  0  0  0  0
    4.0300    0.2141   -1.5556 H   0  0  0  0  0  0  0  0  0  0  0  0
    5.0908    1.3144   -2.2985 H   0  0  0  0  0  0  0  0  0  0  0  0
    5.1272    1.0800   -0.5116 H   0  0  0  0  0  0  0  0  0  0  0  0
    4.7565   -2.2149   -1.7440 H   0  0  0  0  0  0  0  0  0  0  0  0
    5.4176   -0.8669    0.9884 H   0  0  0  0  0  0  0  0  0  0  0  0
    6.1186   -2.9212    1.0532 H   0  0  0  0  0  0  0  0  0  0  0  0
    3.1579   -2.9647   -0.7106 H   0  0  0  0  0  0  0  0  0  0  0  0
    1.5408   -4.3507    0.5445 H   0  0  0  0  0  0  0  0  0  0  0  0
    1.3358   -3.4712   -0.9589 H   0  0  0  0  0  0  0  0  0  0  0  0
    0.1844   -4.8206   -2.1209 H   0  0  0  0  0  0  0  0  0  0  0  0
   -0.1789   -5.3202   -0.5088 H   0  0  0  0  0  0  0  0  0  0  0  0
    1.5896   -8.5048   -2.3161 H   0  0  0  0  0  0  0  0  0  0  0  0
    2.6196   -6.6027   -1.0102 H   0  0  0  0  0  0  0  0  0  0  0  0
    2.5321   -5.8076   -2.6433 H   0  0  0  0  0  0  0  0  0  0  0  0
    4.3225   -7.4923   -3.3730 H   0  0  0  0  0  0  0  0  0  0  0  0
    4.3400   -8.0485   -1.6551 H   0  0  0  0  0  0  0  0  0  0  0  0
    4.1759   -5.8815   -0.9406 H   0  0  0  0  0  0  0  0  0  0  0  0
    4.4578   -5.0936   -2.5496 H   0  0  0  0  0  0  0  0  0  0  0  0
    6.6340   -5.5250   -2.2193 H   0  0  0  0  0  0  0  0  0  0  0  0
    6.2536   -6.8693   -1.0011 H   0  0  0  0  0  0  0  0  0  0  0  0
    7.4657   -4.1122    1.0185 H   0  0  0  0  0  0  0  0  0  0  0  0
    7.9314   -7.0350   -1.7630 H   0  0  0  0  0  0  0  0  0  0  0  0
    9.4334   -7.2155   -0.9932 H   0  0  0  0  0  0  0  0  0  0  0  0
    9.2185   -6.0262   -2.3012 H   0  0  0  0  0  0  0  0  0  0  0  0
    9.5499   -3.9155    0.8699 H   0  0  0  0  0  0  0  0  0  0  0  0
   11.5441   -5.1674   -0.6590 H   0  0  0  0  0  0  0  0  0  0  0  0
   11.6711   -3.4217   -2.2398 H   0  0  0  0  0  0  0  0  0  0  0  0
    9.9385   -2.3427   -3.2234 H   0  0  0  0  0  0  0  0  0  0  0  0
    8.6780   -2.2113   -0.7335 H   0  0  0  0  0  0  0  0  0  0  0  0
    7.5616   -0.7991   -0.1087 H   0  0  0  0  0  0  0  0  0  0  0  0
  1  2  1  0  0  0  0
  1 27  1  0  0  0  0
  1 28  1  0  0  0  0
  1 29  1  0  0  0  0
  2  3  1  0  0  0  0
  2 26  2  0  0  0  0
  3  4  2  0  0  0  0
  3 30  1  0  0  0  0
  4  5  1  0  0  0  0
  4 31  1  0  0  0  0
  5  6  2  0  0  0  0
  5 32  1  0  0  0  0
  6  7  1  0  0  0  0
  6 17  1  0  0  0  0
  7  8  1  0  0  0  0
  7 33  1  0  0  0  0
  8  9  1  0  0  0  0
  8 34  1  0  0  0  0
  8 35  1  0  0  0  0
  9 10  1  0  0  0  0
  9 36  1  0  0  0  0
  9 37  1  0  0  0  0
 10 11  2  0  0  0  0
 10 12  1  0  0  0  0
 12 13  1  0  0  0  0
 12 38  1  0  0  0  0
 13 14  1  0  0  0  0
 13 39  1  0  0  0  0
 13 40  1  0  0  0  0
 14 15  1  0  0  0  0
 14 41  1  0  0  0  0
 14 42  1  0  0  0  0
 15 16  1  0  0  0  0
 15 43  1  0  0  0  0
 15 44  1  0  0  0  0
 16 17  1  0  0  0  0
 16 45  1  0  0  0  0
 16 46  1  0  0  0  0
 17 18  2  0  0  0  0
 18 19  1  0  0  0  0
 18 47  1  0  0  0  0
 19 20  1  0  0  0  0
 19 21  2  0  0  0  0
 20 48  1  0  0  0  0
 20 49  1  0  0  0  0
 20 50  1  0  0  0  0
 21 22  1  0  0  0  0
 21 51  1  0  0  0  0
 22 23  2  0  0  0  0
 22 52  1  0  0  0  0
 23 24  1  0  0  0  0
 23 53  1  0  0  0  0
 24 25  2  0  0  0  0
 24 54  1  0  0  0  0
 25 26  1  0  0  0  0
 25 55  1  0  0  0  0
 26 56  1  0  0  0  0
M  END
$$$$
