
 OpenBabel04232216493D

 60 61  0  0  1  0  0  0  0  0999 V2000
    1.0828    0.4696   -0.6663 C   0  0  0  0  0  0  0  0  0  0  0  0
    2.4940    0.2380   -0.1184 C   0  0  3  0  0  0  0  0  0  0  0  0
    2.8928    1.2826    0.9126 C   0  0  0  0  0  3  0  0  0  0  0  0
    2.0255    2.4921    1.1273 C   0  0  0  0  0  0  0  0  0  0  0  0
    2.5566    3.5969    2.0393 C   0  0  0  0  0  0  0  0  0  0  0  0
    2.5643    3.3316    3.5449 C   0  0  0  0  0  0  0  0  0  0  0  0
    1.3614    2.5505    4.0692 C   0  0  0  0  0  0  0  0  0  0  0  0
    1.3137    2.5627    5.6044 C   0  0  0  0  0  0  0  0  0  0  0  0
    0.6678    1.2933    6.1583 C   0  0  0  0  0  0  0  0  0  0  0  0
    1.6225    0.0976    6.0341 C   0  0  0  0  0  0  0  0  0  0  0  0
    0.8767   -1.1708    5.6480 C   0  0  0  0  0  0  0  0  0  0  0  0
    1.8290   -2.2896    5.2025 C   0  0  0  0  0  0  0  0  0  0  0  0
    1.5170   -2.7380    3.7691 C   0  0  0  0  0  0  0  0  0  0  0  0
    2.3116   -2.0570    2.6736 C   0  0  0  0  0  0  0  0  0  0  0  0
    3.4259   -1.5935    2.9322 O   0  0  0  0  0  0  0  0  0  0  0  0
    1.8009   -2.0153    1.2121 C   0  0  0  0  0  0  0  0  0  0  0  0
    0.6768   -2.6278    0.7106 C   0  0  0  0  0  0  0  0  0  0  0  0
    0.2779   -2.4865   -0.7635 C   0  0  0  0  0  0  0  0  0  0  0  0
   -0.3626   -3.6996   -1.4231 C   0  0  0  0  0  0  0  0  0  0  0  0
   -1.5706   -4.1510   -0.6292 C   0  0  0  0  0  0  0  0  0  0  0  0
   -1.1182   -4.5255    0.7655 C   0  0  0  0  0  0  0  0  0  0  0  0
   -0.3960   -3.3840    1.4851 C   0  0  0  0  0  0  0  0  0  0  0  0
    2.7935   -1.2413    0.3063 C   0  0  0  0  0  0  0  0  0  0  0  0
    0.9263    1.4987   -1.0015 H   0  0  0  0  0  0  0  0  0  0  0  0
    0.3191    0.2547    0.0882 H   0  0  0  0  0  0  0  0  0  0  0  0
    0.9092   -0.1258   -1.5637 H   0  0  0  0  0  0  0  0  0  0  0  0
    3.1648    0.4274   -0.9702 H   0  0  0  0  0  0  0  0  0  0  0  0
    3.9535    1.3557    1.1462 H   0  0  0  0  0  0  0  0  0  0  0  0
    1.0421    2.1607    1.4764 H   0  0  0  0  0  0  0  0  0  0  0  0
    1.8715    2.9704    0.1529 H   0  0  0  0  0  0  0  0  0  0  0  0
    1.9238    4.4780    1.8673 H   0  0  0  0  0  0  0  0  0  0  0  0
    3.5663    3.8881    1.7239 H   0  0  0  0  0  0  0  0  0  0  0  0
    2.6130    4.3036    4.0530 H   0  0  0  0  0  0  0  0  0  0  0  0
    3.4821    2.7950    3.8121 H   0  0  0  0  0  0  0  0  0  0  0  0
    1.4189    1.5234    3.6914 H   0  0  0  0  0  0  0  0  0  0  0  0
    0.4263    2.9742    3.6828 H   0  0  0  0  0  0  0  0  0  0  0  0
    0.7357    3.4355    5.9301 H   0  0  0  0  0  0  0  0  0  0  0  0
    2.3186    2.6694    6.0292 H   0  0  0  0  0  0  0  0  0  0  0  0
   -0.2803    1.1148    5.6359 H   0  0  0  0  0  0  0  0  0  0  0  0
    0.4186    1.4390    7.2158 H   0  0  0  0  0  0  0  0  0  0  0  0
    2.1429   -0.0561    6.9870 H   0  0  0  0  0  0  0  0  0  0  0  0
    2.3999    0.2947    5.2874 H   0  0  0  0  0  0  0  0  0  0  0  0
    0.1613   -0.9307    4.8515 H   0  0  0  0  0  0  0  0  0  0  0  0
    0.2790   -1.5165    6.5009 H   0  0  0  0  0  0  0  0  0  0  0  0
    1.6711   -3.1439    5.8665 H   0  0  0  0  0  0  0  0  0  0  0  0
    2.8865   -2.0030    5.3191 H   0  0  0  0  0  0  0  0  0  0  0  0
    0.4528   -2.5454    3.6226 H   0  0  0  0  0  0  0  0  0  0  0  0
    1.7177   -3.8104    3.6940 H   0  0  0  0  0  0  0  0  0  0  0  0
    1.1263   -2.2207   -1.3973 H   0  0  0  0  0  0  0  0  0  0  0  0
   -0.4585   -1.6757   -0.8195 H   0  0  0  0  0  0  0  0  0  0  0  0
    0.3686   -4.5119   -1.5071 H   0  0  0  0  0  0  0  0  0  0  0  0
   -0.6718   -3.4330   -2.4403 H   0  0  0  0  0  0  0  0  0  0  0  0
   -2.0408   -5.0111   -1.1159 H   0  0  0  0  0  0  0  0  0  0  0  0
   -2.3203   -3.3508   -0.5830 H   0  0  0  0  0  0  0  0  0  0  0  0
   -0.4471   -5.3912    0.7078 H   0  0  0  0  0  0  0  0  0  0  0  0
   -1.9834   -4.8366    1.3635 H   0  0  0  0  0  0  0  0  0  0  0  0
    0.0075   -3.8820    2.3594 H   0  0  0  0  0  0  0  0  0  0  0  0
   -1.1435   -2.6486    1.8133 H   0  0  0  0  0  0  0  0  0  0  0  0
    2.9473   -1.8312   -0.6106 H   0  0  0  0  0  0  0  0  0  0  0  0
    3.8038   -1.2619    0.7362 H   0  0  0  0  0  0  0  0  0  0  0  0
  1  2  1  0  0  0  0
  1 24  1  0  0  0  0
  1 25  1  0  0  0  0
  1 26  1  0  0  0  0
  2  3  1  0  0  0  0
  2 23  1  0  0  0  0
  2 27  1  0  0  0  0
  3  4  1  0  0  0  0
  3 28  1  0  0  0  0
  4  5  1  0  0  0  0
  4 29  1  0  0  0  0
  4 30  1  0  0  0  0
  5  6  1  0  0  0  0
  5 31  1  0  0  0  0
  5 32  1  0  0  0  0
  6  7  1  0  0  0  0
  6 33  1  0  0  0  0
  6 34  1  0  0  0  0
  7  8  1  0  0  0  0
  7 35  1  0  0  0  0
  7 36  1  0  0  0  0
  8  9  1  0  0  0  0
  8 37  1  0  0  0  0
  8 38  1  0  0  0  0
  9 10  1  0  0  0  0
  9 39  1  0  0  0  0
  9 40  1  0  0  0  0
 10 11  1  0  0  0  0
 10 41  1  0  0  0  0
 10 42  1  0  0  0  0
 11 12  1  0  0  0  0
 11 43  1  0  0  0  0
 11 44  1  0  0  0  0
 12 13  1  0  0  0  0
 12 45  1  0  0  0  0
 12 46  1  0  0  0  0
 13 14  1  0  0  0  0
 13 47  1  0  0  0  0
 13 48  1  0  0  0  0
 14 15  2  0  0  0  0
 14 16  1  0  0  0  0
 16 17  2  0  0  0  0
 16 23  1  0  0  0  0
 17 18  1  0  0  0  0
 17 22  1  0  0  0  0
 18 19  1  0  0  0  0
 18 49  1  0  0  0  0
 18 50  1  0  0  0  0
 19 20  1  0  0  0  0
 19 51  1  0  0  0  0
 19 52  1  0  0  0  0
 20 21  1  0  0  0  0
 20 53  1  0  0  0  0
 20 54  1  0  0  0  0
 21 22  1  0  0  0  0
 21 55  1  0  0  0  0
 21 56  1  0  0  0  0
 22 57  1  0  0  0  0
 22 58  1  0  0  0  0
 23 59  1  0  0  0  0
 23 60  1  0  0  0  0
M  END
$$$$
