
 OpenBabel04232216503D

105106  0  0  1  0  0  0  0  0999 V2000
    6.3414   -3.1622    1.6716 C   0  0  0  0  0  0  0  0  0  0  0  0
    8.2388   -4.1328    1.2499 C   0  0  3  0  0  0  0  0  0  0  0  0
    7.5173   -2.1790    0.7129 C   0  0  0  0  0  0  0  0  0  0  0  0
    7.2767   -0.6211    1.8037 C   0  0  0  0  0  0  0  0  0  0  0  0
    8.5128   -0.2552    1.0719 C   0  0  0  0  0  0  0  0  0  0  0  0
    9.2236   -0.8496    2.1869 C   0  0  0  0  0  0  0  0  0  0  0  0
    9.9666   -1.8160    1.4158 C   0  0  0  0  0  0  0  0  0  0  0  0
   10.4241   -2.6047    2.5234 C   0  0  0  0  0  0  0  0  0  0  0  0
   11.1621   -3.4660    1.6560 C   0  0  0  0  0  0  0  0  0  0  0  0
   11.6845   -4.1846    2.7699 C   0  0  0  0  0  0  0  0  0  0  0  0
   12.7712   -4.7342    2.0290 C   0  0  0  0  0  0  0  0  0  0  0  0
   13.2937   -5.2661    3.3129 C   0  0  0  0  0  0  0  0  0  0  0  0
   14.6430   -5.3379    3.0913 O   0  0  0  0  0  0  0  0  0  0  0  0
   15.0699   -6.4504    3.8061 C   0  0  0  0  0  0  0  0  0  0  0  0
   15.5613   -7.1449    2.5911 C   0  0  0  0  0  0  0  0  0  0  0  0
   14.3892   -7.7358    2.3557 C   0  0  0  0  0  0  0  0  0  0  0  0
   12.8798   -7.0290    1.6564 C   0  0  0  0  0  0  0  0  0  0  0  0
   11.2988   -7.1569    1.8237 C   0  0  0  0  0  0  0  0  0  0  0  0
   12.7694   -8.8807    1.9122 C   0  0  0  0  0  0  0  0  0  0  0  0
   14.8106  -10.1411    1.8894 C   0  0  0  0  0  0  0  0  0  0  0  0
   16.5438  -11.7688    1.9889 C   0  0  0  0  0  0  0  0  0  0  0  0
   18.4369  -13.0709    1.9735 C   0  0  0  0  0  0  0  0  0  0  0  0
   20.1657  -14.6684    1.6834 C   0  0  0  0  0  0  0  0  0  0  0  0
   21.8351  -15.7986    1.8990 C   0  0  0  0  0  0  0  0  0  0  0  0
   23.0510  -17.3588    1.2643 C   0  0  0  0  0  0  0  0  0  0  0  0
   24.2343  -17.7813   -0.0847 C   0  0  0  0  0  0  0  0  0  0  0  0
   25.5027  -16.9157   -0.2421 C   0  0  0  0  0  0  0  0  0  0  0  0
   26.1574  -16.9116   -1.6323 C   0  0  0  0  0  0  0  0  0  0  0  0
   27.1711  -15.7549   -1.6957 C   0  0  0  0  0  0  0  0  0  0  0  0
   26.6002  -14.2742   -1.4155 C   0  0  0  0  0  0  0  0  0  0  0  0
   26.1639  -13.3456    0.1021 C   0  0  3  0  0  0  0  0  0  0  0  0
   27.5074  -13.4213    0.6188 N   0  0  0  0  0  0  0  0  0  0  0  0
   27.6178  -12.2960    1.2250 C   0  0  0  0  0  0  0  0  0  0  0  0
   28.0618  -12.5131    2.5819 C   0  0  0  0  0  0  0  0  0  0  0  0
   27.6519  -11.5123    3.3579 C   0  0  0  0  0  0  0  0  0  0  0  0
   27.1212  -11.8732    4.6435 C   0  0  0  0  0  0  0  0  0  0  0  0
   25.8030  -11.8179    4.4101 C   0  0  0  0  0  0  0  0  0  0  0  0
   25.1443  -12.5650    3.0970 C   0  0  0  0  0  0  0  0  0  0  0  0
   25.2032  -13.1182    1.7100 C   0  0  0  0  0  0  0  0  0  0  0  0
    9.6323   -5.7173    1.8312 N   0  0  0  0  0  0  0  0  0  0  0  0
    8.3683   -5.1492    3.2341 C   0  0  0  0  0  0  0  0  0  0  0  0
    5.8967   -1.8484    1.4372 H   0  0  0  0  0  0  0  0  0  0  0  0
    5.9991   -2.4467    2.6607 H   0  0  0  0  0  0  0  0  0  0  0  0
    5.3623   -2.9226    0.8572 H   0  0  0  0  0  0  0  0  0  0  0  0
    8.5285   -3.4434    2.0626 H   0  0  0  0  0  0  0  0  0  0  0  0
    7.0866   -1.1984   -0.0211 H   0  0  0  0  0  0  0  0  0  0  0  0
    6.6248   -2.2510   -0.1330 H   0  0  0  0  0  0  0  0  0  0  0  0
    7.0840   -0.8271    2.9105 H   0  0  0  0  0  0  0  0  0  0  0  0
    6.8341    0.4395    1.8271 H   0  0  0  0  0  0  0  0  0  0  0  0
    8.5984    0.7175    0.6295 H   0  0  0  0  0  0  0  0  0  0  0  0
    8.6797   -0.7957    0.0508 H   0  0  0  0  0  0  0  0  0  0  0  0
    8.6590   -1.5485    2.8648 H   0  0  0  0  0  0  0  0  0  0  0  0
    9.4363   -0.1737    3.0057 H   0  0  0  0  0  0  0  0  0  0  0  0
   10.6502   -1.3739    0.7116 H   0  0  0  0  0  0  0  0  0  0  0  0
    9.4599   -2.4733    0.6687 H   0  0  0  0  0  0  0  0  0  0  0  0
    9.7958   -3.2022    3.1822 H   0  0  0  0  0  0  0  0  0  0  0  0
   10.8991   -1.9939    3.2822 H   0  0  0  0  0  0  0  0  0  0  0  0
   11.8804   -2.8887    1.0734 H   0  0  0  0  0  0  0  0  0  0  0  0
   10.6347   -4.0696    0.8972 H   0  0  0  0  0  0  0  0  0  0  0  0
   11.0152   -4.9039    3.2835 H   0  0  0  0  0  0  0  0  0  0  0  0
   12.0344   -3.5276    3.5737 H   0  0  0  0  0  0  0  0  0  0  0  0
   13.4544   -4.1379    1.4289 H   0  0  0  0  0  0  0  0  0  0  0  0
   12.2797   -5.2553    1.1632 H   0  0  0  0  0  0  0  0  0  0  0  0
   12.6793   -6.1296    3.6973 H   0  0  0  0  0  0  0  0  0  0  0  0
   13.3111   -4.6235    4.1795 H   0  0  0  0  0  0  0  0  0  0  0  0
   14.2175   -7.0038    4.3325 H   0  0  0  0  0  0  0  0  0  0  0  0
   15.6248   -6.0989    4.6478 H   0  0  0  0  0  0  0  0  0  0  0  0
   15.9473   -6.6798    1.6909 H   0  0  0  0  0  0  0  0  0  0  0  0
   14.3498   -8.4348    3.2758 H   0  0  0  0  0  0  0  0  0  0  0  0
   13.2741   -6.9846    0.6303 H   0  0  0  0  0  0  0  0  0  0  0  0
   12.4449   -9.4678    1.0334 H   0  0  0  0  0  0  0  0  0  0  0  0
   12.5746   -9.2561    2.9199 H   0  0  0  0  0  0  0  0  0  0  0  0
   15.5837   -9.5687    2.5462 H   0  0  0  0  0  0  0  0  0  0  0  0
   15.1799   -9.8523    0.8599 H   0  0  0  0  0  0  0  0  0  0  0  0
   16.8712  -11.5900    3.1294 H   0  0  0  0  0  0  0  0  0  0  0  0
   17.4244  -10.9288    1.6861 H   0  0  0  0  0  0  0  0  0  0  0  0
   18.5228  -13.4609    3.0333 H   0  0  0  0  0  0  0  0  0  0  0  0
   19.3731  -12.3558    1.9800 H   0  0  0  0  0  0  0  0  0  0  0  0
   20.5986  -14.4197    0.6951 H   0  0  0  0  0  0  0  0  0  0  0  0
   19.6210  -15.6124    1.7036 H   0  0  0  0  0  0  0  0  0  0  0  0
   21.8668  -16.3895    2.8950 H   0  0  0  0  0  0  0  0  0  0  0  0
   22.8483  -15.2614    2.0383 H   0  0  0  0  0  0  0  0  0  0  0  0
   22.6665  -18.4276    1.4030 H   0  0  0  0  0  0  0  0  0  0  0  0
   23.9510  -17.6000    2.0444 H   0  0  0  0  0  0  0  0  0  0  0  0
   23.6501  -17.8315   -0.9969 H   0  0  0  0  0  0  0  0  0  0  0  0
   24.6849  -18.8365   -0.0511 H   0  0  0  0  0  0  0  0  0  0  0  0
   26.3073  -17.1841    0.4663 H   0  0  0  0  0  0  0  0  0  0  0  0
   25.1715  -15.9125   -0.0273 H   0  0  0  0  0  0  0  0  0  0  0  0
   25.4124  -16.7927   -2.4283 H   0  0  0  0  0  0  0  0  0  0  0  0
   26.6676  -17.8677   -1.8638 H   0  0  0  0  0  0  0  0  0  0  0  0
   27.5709  -15.7887   -2.7388 H   0  0  0  0  0  0  0  0  0  0  0  0
   28.0696  -15.9911   -1.1065 H   0  0  0  0  0  0  0  0  0  0  0  0
   25.9243  -14.0358   -2.2524 H   0  0  0  0  0  0  0  0  0  0  0  0
   27.5119  -13.7094   -1.7464 H   0  0  0  0  0  0  0  0  0  0  0  0
   25.9738  -12.3896   -0.4373 H   0  0  0  0  0  0  0  0  0  0  0  0
   26.9585  -11.4143    1.0001 H   0  0  0  0  0  0  0  0  0  0  0  0
   27.9468  -13.5511    2.9375 H   0  0  0  0  0  0  0  0  0  0  0  0
   27.0522  -10.7019    2.8969 H   0  0  0  0  0  0  0  0  0  0  0  0
   27.5100  -12.8460    4.9760 H   0  0  0  0  0  0  0  0  0  0  0  0
   25.3885  -10.9343    4.9624 H   0  0  0  0  0  0  0  0  0  0  0  0
   24.7132  -13.2659    3.8536 H   0  0  0  0  0  0  0  0  0  0  0  0
   24.2014  -12.9681    1.2801 H   0  0  0  0  0  0  0  0  0  0  0  0
    7.1963   -5.3143    3.4344 H   0  0  0  0  0  0  0  0  0  0  0  0
    7.4656   -4.5069    2.7270 H   0  0  0  0  0  0  0  0  0  0  0  0
    8.5365   -4.0985    3.7937 H   0  0  0  0  0  0  0  0  0  0  0  0
  1  2  1  0  0  0  0
  1 42  1  0  0  0  0
  1 43  1  0  0  0  0
  1 44  1  0  0  0  0
  2  3  1  0  0  0  0
  2 40  1  0  0  0  0
  2 45  1  0  0  0  0
  3  4  1  0  0  0  0
  3 46  1  0  0  0  0
  3 47  1  0  0  0  0
  4  5  1  0  0  0  0
  4 48  1  0  0  0  0
  4 49  1  0  0  0  0
  5  6  1  0  0  0  0
  5 50  1  0  0  0  0
  5 51  1  0  0  0  0
  6  7  1  0  0  0  0
  6 52  1  0  0  0  0
  6 53  1  0  0  0  0
  7  8  1  0  0  0  0
  7 54  1  0  0  0  0
  7 55  1  0  0  0  0
  8  9  1  0  0  0  0
  8 56  1  0  0  0  0
  8 57  1  0  0  0  0
  9 10  1  0  0  0  0
  9 58  1  0  0  0  0
  9 59  1  0  0  0  0
 10 11  1  0  0  0  0
 10 60  1  0  0  0  0
 10 61  1  0  0  0  0
 11 12  1  0  0  0  0
 11 62  1  0  0  0  0
 11 63  1  0  0  0  0
 12 13  1  0  0  0  0
 12 64  1  0  0  0  0
 12 65  1  0  0  0  0
 13 14  1  0  0  0  0
 14 15  1  0  0  0  0
 14 66  1  0  0  0  0
 14 67  1  0  0  0  0
 15 16  2  3  0  0  0
 15 68  1  0  0  0  0
 16 17  1  0  0  0  0
 16 69  1  0  0  0  0
 17 18  2  3  0  0  0
 17 70  1  0  0  0  0
 18 19  1  0  0  0  0
 18 40  1  0  0  0  0
 19 20  1  0  0  0  0
 19 71  1  0  0  0  0
 19 72  1  0  0  0  0
 20 21  1  0  0  0  0
 20 73  1  0  0  0  0
 20 74  1  0  0  0  0
 21 22  1  0  0  0  0
 21 75  1  0  0  0  0
 21 76  1  0  0  0  0
 22 23  1  0  0  0  0
 22 77  1  0  0  0  0
 22 78  1  0  0  0  0
 23 24  1  0  0  0  0
 23 79  1  0  0  0  0
 23 80  1  0  0  0  0
 24 25  1  0  0  0  0
 24 81  1  0  0  0  0
 24 82  1  0  0  0  0
 25 26  1  0  0  0  0
 25 83  1  0  0  0  0
 25 84  1  0  0  0  0
 26 27  1  0  0  0  0
 26 85  1  0  0  0  0
 26 86  1  0  0  0  0
 27 28  1  0  0  0  0
 27 87  1  0  0  0  0
 27 88  1  0  0  0  0
 28 29  1  0  0  0  0
 28 89  1  0  0  0  0
 28 90  1  0  0  0  0
 29 30  1  0  0  0  0
 29 91  1  0  0  0  0
 29 92  1  0  0  0  0
 30 31  1  0  0  0  0
 30 93  1  0  0  0  0
 30 94  1  0  0  0  0
 31 32  1  0  0  0  0
 31 39  1  0  0  0  0
 31 95  1  0  0  0  0
 32 33  2  3  0  0  0
 33 34  1  0  0  0  0
 33 96  1  0  0  0  0
 34 35  2  3  0  0  0
 34 97  1  0  0  0  0
 35 36  1  0  0  0  0
 35 98  1  0  0  0  0
 36 37  2  3  0  0  0
 36 99  1  0  0  0  0
 37 38  1  0  0  0  0
 37100  1  0  0  0  0
 38 39  2  3  0  0  0
 38101  1  0  0  0  0
 39102  1  0  0  0  0
 40 41  1  0  0  0  0
 41103  1  0  0  0  0
 41104  1  0  0  0  0
 41105  1  0  0  0  0
M  END
$$$$
