
 OpenBabel04232216413D

224223  0  0  0  0  0  0  0  0999 V2000
    1.4886   -0.9788    0.3233 C   0  0  0  0  0  0  0  0  0  0  0  0
    2.3394   -0.0315   -0.0915 C   0  0  0  0  0  0  0  0  0  0  0  0
    3.1137   -0.1503   -1.3686 C   0  0  0  0  0  0  0  0  0  0  0  0
    4.5626   -0.1121   -1.1071 N   0  0  0  0  0  0  0  0  0  0  0  0
    5.2730   -0.2333   -2.3437 N   0  0  0  0  0  0  0  0  0  0  0  0
    6.6685   -0.1994   -2.0959 N   0  0  0  0  0  0  0  0  0  0  0  0
    7.3828   -0.3132   -3.3086 N   0  0  0  0  0  0  0  0  0  0  0  0
    8.7621   -0.2767   -3.0400 N   0  0  0  0  0  0  0  0  0  0  0  0
    9.4888   -0.3936   -4.2606 N   0  0  0  0  0  0  0  0  0  0  0  0
   10.8884   -0.3592   -4.0250 N   0  0  0  0  0  0  0  0  0  0  0  0
   11.5944   -0.4714   -5.2499 N   0  0  0  0  0  0  0  0  0  0  0  0
   12.9871   -0.4352   -4.9960 N   0  0  0  0  0  0  0  0  0  0  0  0
   13.7086   -0.5460   -6.2060 N   0  0  0  0  0  0  0  0  0  0  0  0
   15.1079   -0.5092   -5.9390 N   0  0  0  0  0  0  0  0  0  0  0  0
   15.8094   -0.6264   -7.2081 C   0  0  0  0  0  0  0  0  0  0  0  0
   17.3071   -0.5914   -6.9394 C   0  0  0  0  0  0  0  0  0  0  0  0
   18.0763   -0.7087   -8.2455 C   0  0  0  0  0  0  0  0  0  0  0  0
   19.5702   -0.6758   -7.9779 C   0  0  0  0  0  0  0  0  0  0  0  0
   20.3347   -0.7912   -9.2835 C   0  0  0  0  0  0  0  0  0  0  0  0
   21.8270   -0.7601   -9.0142 C   0  0  0  0  0  0  0  0  0  0  0  0
   22.5903   -0.8736  -10.3197 C   0  0  0  0  0  0  0  0  0  0  0  0
   24.0821   -0.8444  -10.0496 C   0  0  0  0  0  0  0  0  0  0  0  0
   24.8450   -0.9559  -11.3552 C   0  0  0  0  0  0  0  0  0  0  0  0
   26.3366   -0.9287  -11.0848 C   0  0  0  0  0  0  0  0  0  0  0  0
   27.0994   -1.0401  -12.3904 C   0  0  0  0  0  0  0  0  0  0  0  0
   28.5911   -1.0110  -12.1202 C   0  0  0  0  0  0  0  0  0  0  0  0
   29.3539   -1.1224  -13.4257 C   0  0  0  0  0  0  0  0  0  0  0  0
   30.8455   -1.0933  -13.1555 C   0  0  0  0  0  0  0  0  0  0  0  0
   31.6083   -1.2047  -14.4611 C   0  0  0  0  0  0  0  0  0  0  0  0
   33.0999   -1.1756  -14.1909 C   0  0  0  0  0  0  0  0  0  0  0  0
   33.8627   -1.2870  -15.4964 C   0  0  0  0  0  0  0  0  0  0  0  0
   35.3543   -1.2578  -15.2262 C   0  0  0  0  0  0  0  0  0  0  0  0
   36.1171   -1.3672  -16.5320 C   0  0  0  0  0  0  0  0  0  0  0  0
   37.6087   -1.3381  -16.2617 C   0  0  0  0  0  0  0  0  0  0  0  0
   38.3715   -1.4475  -17.5675 C   0  0  0  0  0  0  0  0  0  0  0  0
   39.8631   -1.4184  -17.2973 C   0  0  0  0  0  0  0  0  0  0  0  0
   40.6258   -1.5258  -18.6032 C   0  0  0  0  0  0  0  0  0  0  0  0
   42.1175   -1.4986  -18.3328 C   0  0  0  0  0  0  0  0  0  0  0  0
   42.8802   -1.6080  -19.6386 C   0  0  0  0  0  0  0  0  0  0  0  0
   44.3719   -1.5829  -19.3680 C   0  0  0  0  0  0  0  0  0  0  0  0
   45.1346   -1.6943  -20.6736 C   0  0  0  0  0  0  0  0  0  0  0  0
   46.6263   -1.6712  -20.4028 C   0  0  0  0  0  0  0  0  0  0  0  0
   47.3890   -1.7826  -21.7084 C   0  0  0  0  0  0  0  0  0  0  0  0
   48.8807   -1.7595  -21.4377 C   0  0  0  0  0  0  0  0  0  0  0  0
   49.6435   -1.8709  -22.7433 C   0  0  0  0  0  0  0  0  0  0  0  0
   51.1351   -1.8478  -22.4725 C   0  0  0  0  0  0  0  0  0  0  0  0
   51.8979   -1.9592  -23.7781 C   0  0  0  0  0  0  0  0  0  0  0  0
   53.3895   -1.9381  -23.5072 C   0  0  0  0  0  0  0  0  0  0  0  0
   54.1523   -2.0476  -24.8129 C   0  0  0  0  0  0  0  0  0  0  0  0
   55.6439   -2.0285  -24.5419 C   0  0  0  0  0  0  0  0  0  0  0  0
   56.4067   -2.1378  -25.8476 C   0  0  0  0  0  0  0  0  0  0  0  0
   57.8983   -2.1168  -25.5767 C   0  0  0  0  0  0  0  0  0  0  0  0
   58.6611   -2.2242  -26.8826 C   0  0  0  0  0  0  0  0  0  0  0  0
   60.1527   -2.2050  -26.6115 C   0  0  0  0  0  0  0  0  0  0  0  0
   60.9155   -2.3104  -27.9176 C   0  0  0  0  0  0  0  0  0  0  0  0
   62.4071   -2.2894  -27.6467 C   0  0  0  0  0  0  0  0  0  0  0  0
   63.1699   -2.3967  -28.9526 C   0  0  0  0  0  0  0  0  0  0  0  0
   64.6615   -2.3756  -28.6817 C   0  0  0  0  0  0  0  0  0  0  0  0
   65.4243   -2.4810  -29.9878 C   0  0  0  0  0  0  0  0  0  0  0  0
   66.9160   -2.4599  -29.7169 C   0  0  0  0  0  0  0  0  0  0  0  0
   67.6787   -2.5653  -31.0230 C   0  0  0  0  0  0  0  0  0  0  0  0
   69.1704   -2.5442  -30.7520 C   0  0  0  0  0  0  0  0  0  0  0  0
   69.9331   -2.6496  -32.0581 C   0  0  0  0  0  0  0  0  0  0  0  0
   71.4248   -2.6285  -31.7872 C   0  0  0  0  0  0  0  0  0  0  0  0
   72.1876   -2.7339  -33.0933 C   0  0  0  0  0  0  0  0  0  0  0  0
   73.6792   -2.7128  -32.8224 C   0  0  0  0  0  0  0  0  0  0  0  0
   74.4420   -2.8181  -34.1285 C   0  0  0  0  0  0  0  0  0  0  0  0
   75.9338   -2.7971  -33.8576 C   0  0  0  0  0  0  0  0  0  0  0  0
   76.6967   -2.9004  -35.1639 C   0  0  0  0  0  0  0  0  0  0  0  0
   78.1887   -2.8793  -34.8932 C   0  0  0  0  0  0  0  0  0  0  0  0
   78.9523   -2.9827  -36.1996 C   0  0  0  0  0  0  0  0  0  0  0  0
   80.4450   -2.9617  -35.9291 C   0  0  0  0  0  0  0  0  0  0  0  0
   81.2110   -3.0650  -37.2351 C   0  0  0  0  0  0  0  0  0  0  0  0
   82.7073   -3.0444  -36.9672 C   0  0  0  0  0  0  0  0  0  0  0  0
   83.4691   -3.1460  -38.2788 C   0  0  0  0  0  0  0  0  0  0  0  0
   84.9022   -3.1225  -37.9997 N   0  0  0  0  0  0  0  0  0  0  0  0
   85.6118   -3.2183  -39.2294 N   0  0  0  0  0  0  0  0  0  0  0  0
   87.0005   -3.1989  -38.9642 N   0  0  0  0  0  0  0  0  0  0  0  0
   87.7167   -3.2938  -40.1792 N   0  0  0  0  0  0  0  0  0  0  0  0
   89.1307   -3.2717  -39.9574 N   0  0  0  0  0  0  0  0  0  0  0  0
    0.9478   -0.8637    1.2528 H   0  0  0  0  0  0  0  0  0  0  0  0
    1.3406   -1.8815   -0.2602 H   0  0  0  0  0  0  0  0  0  0  0  0
    2.4694    0.8636    0.5123 H   0  0  0  0  0  0  0  0  0  0  0  0
    2.8468    0.6879   -2.0246 H   0  0  0  0  0  0  0  0  0  0  0  0
    2.8490   -1.0851   -1.8797 H   0  0  0  0  0  0  0  0  0  0  0  0
    4.8121   -0.9060   -0.5160 H   0  0  0  0  0  0  0  0  0  0  0  0
    5.0536    0.5510   -2.9598 H   0  0  0  0  0  0  0  0  0  0  0  0
    6.9382   -0.9708   -1.4856 H   0  0  0  0  0  0  0  0  0  0  0  0
    7.1531    0.4638   -3.9240 H   0  0  0  0  0  0  0  0  0  0  0  0
    8.9804   -1.0479   -2.4058 H   0  0  0  0  0  0  0  0  0  0  0  0
    9.2317    0.3780   -4.8890 H   0  0  0  0  0  0  0  0  0  0  0  0
   11.1841   -1.1280   -3.4197 H   0  0  0  0  0  0  0  0  0  0  0  0
   11.3499    0.3059   -5.8623 H   0  0  0  0  0  0  0  0  0  0  0  0
   13.2258   -1.2103   -4.3821 H   0  0  0  0  0  0  0  0  0  0  0  0
   13.4462    0.2401   -6.7987 H   0  0  0  0  0  0  0  0  0  0  0  0
   15.3385   -1.3014   -5.3406 H   0  0  0  0  0  0  0  0  0  0  0  0
   15.5455    0.2071   -7.8712 H   0  0  0  0  0  0  0  0  0  0  0  0
   15.5515   -1.5645   -7.7158 H   0  0  0  0  0  0  0  0  0  0  0  0
   17.5915   -1.4154   -6.2727 H   0  0  0  0  0  0  0  0  0  0  0  0
   17.5790    0.3465   -6.4381 H   0  0  0  0  0  0  0  0  0  0  0  0
   17.8027    0.1155   -8.9155 H   0  0  0  0  0  0  0  0  0  0  0  0
   17.8121   -1.6456   -8.7511 H   0  0  0  0  0  0  0  0  0  0  0  0
   19.8481   -1.5014   -7.3114 H   0  0  0  0  0  0  0  0  0  0  0  0
   19.8383    0.2602   -7.4729 H   0  0  0  0  0  0  0  0  0  0  0  0
   20.0602    0.0350   -9.9507 H   0  0  0  0  0  0  0  0  0  0  0  0
   20.0680   -1.7267   -9.7904 H   0  0  0  0  0  0  0  0  0  0  0  0
   22.1029   -1.5873   -8.3488 H   0  0  0  0  0  0  0  0  0  0  0  0
   22.0948    0.1746   -8.5067 H   0  0  0  0  0  0  0  0  0  0  0  0
   22.3161   -0.0456  -10.9848 H   0  0  0  0  0  0  0  0  0  0  0  0
   22.3221   -1.8077  -10.8282 H   0  0  0  0  0  0  0  0  0  0  0  0
   24.3568   -1.6733   -9.3858 H   0  0  0  0  0  0  0  0  0  0  0  0
   24.3503    0.0890   -9.5399 H   0  0  0  0  0  0  0  0  0  0  0  0
   24.5715   -0.1262  -12.0185 H   0  0  0  0  0  0  0  0  0  0  0  0
   24.5758   -1.8887  -11.8656 H   0  0  0  0  0  0  0  0  0  0  0  0
   26.6102   -1.7584  -10.4215 H   0  0  0  0  0  0  0  0  0  0  0  0
   26.6059    0.0041  -10.5744 H   0  0  0  0  0  0  0  0  0  0  0  0
   26.8248   -0.2113  -13.0542 H   0  0  0  0  0  0  0  0  0  0  0  0
   26.8313   -1.9736  -12.9001 H   0  0  0  0  0  0  0  0  0  0  0  0
   28.8657   -1.8399  -11.4563 H   0  0  0  0  0  0  0  0  0  0  0  0
   28.8592   -0.0775  -11.6105 H   0  0  0  0  0  0  0  0  0  0  0  0
   29.0792   -0.2936  -14.0896 H   0  0  0  0  0  0  0  0  0  0  0  0
   29.0857   -2.0559  -13.9354 H   0  0  0  0  0  0  0  0  0  0  0  0
   31.1201   -1.9221  -12.4917 H   0  0  0  0  0  0  0  0  0  0  0  0
   31.1136   -0.1598  -12.6458 H   0  0  0  0  0  0  0  0  0  0  0  0
   31.3336   -0.3758  -15.1249 H   0  0  0  0  0  0  0  0  0  0  0  0
   31.3401   -2.1382  -14.9708 H   0  0  0  0  0  0  0  0  0  0  0  0
   33.3745   -2.0044  -13.5270 H   0  0  0  0  0  0  0  0  0  0  0  0
   33.3680   -0.2421  -13.6812 H   0  0  0  0  0  0  0  0  0  0  0  0
   33.5880   -0.4581  -16.1603 H   0  0  0  0  0  0  0  0  0  0  0  0
   33.5945   -2.2205  -16.0061 H   0  0  0  0  0  0  0  0  0  0  0  0
   35.6291   -2.0875  -14.5635 H   0  0  0  0  0  0  0  0  0  0  0  0
   35.6222   -0.3250  -14.7153 H   0  0  0  0  0  0  0  0  0  0  0  0
   35.8422   -0.5375  -17.1946 H   0  0  0  0  0  0  0  0  0  0  0  0
   35.8491   -2.3001  -17.0429 H   0  0  0  0  0  0  0  0  0  0  0  0
   37.8835   -2.1678  -15.5991 H   0  0  0  0  0  0  0  0  0  0  0  0
   37.8766   -0.4053  -15.7508 H   0  0  0  0  0  0  0  0  0  0  0  0
   38.0966   -0.6178  -18.2302 H   0  0  0  0  0  0  0  0  0  0  0  0
   38.1035   -2.3804  -18.0785 H   0  0  0  0  0  0  0  0  0  0  0  0
   40.1381   -2.2489  -16.6357 H   0  0  0  0  0  0  0  0  0  0  0  0
   40.1308   -0.4862  -16.7850 H   0  0  0  0  0  0  0  0  0  0  0  0
   40.3518   -0.6944  -19.2642 H   0  0  0  0  0  0  0  0  0  0  0  0
   40.3571   -2.4573  -19.1161 H   0  0  0  0  0  0  0  0  0  0  0  0
   42.3912   -2.3291  -17.6707 H   0  0  0  0  0  0  0  0  0  0  0  0
   42.3865   -0.5665  -17.8211 H   0  0  0  0  0  0  0  0  0  0  0  0
   42.6075   -0.7767  -20.3001 H   0  0  0  0  0  0  0  0  0  0  0  0
   42.6102   -2.5395  -20.1509 H   0  0  0  0  0  0  0  0  0  0  0  0
   44.6443   -2.4134  -18.7053 H   0  0  0  0  0  0  0  0  0  0  0  0
   44.6422   -0.6508  -18.8569 H   0  0  0  0  0  0  0  0  0  0  0  0
   44.8632   -0.8631  -21.3357 H   0  0  0  0  0  0  0  0  0  0  0  0
   44.8633   -2.6258  -21.1853 H   0  0  0  0  0  0  0  0  0  0  0  0
   46.8977   -2.5025  -19.7407 H   0  0  0  0  0  0  0  0  0  0  0  0
   46.8977   -0.7398  -19.8911 H   0  0  0  0  0  0  0  0  0  0  0  0
   47.1177   -0.9514  -22.3706 H   0  0  0  0  0  0  0  0  0  0  0  0
   47.1177   -2.7141  -22.2202 H   0  0  0  0  0  0  0  0  0  0  0  0
   49.1521   -2.5908  -20.7755 H   0  0  0  0  0  0  0  0  0  0  0  0
   49.1521   -0.8281  -20.9259 H   0  0  0  0  0  0  0  0  0  0  0  0
   49.3721   -1.0397  -23.4054 H   0  0  0  0  0  0  0  0  0  0  0  0
   49.3721   -2.8024  -23.2550 H   0  0  0  0  0  0  0  0  0  0  0  0
   51.4065   -2.6791  -21.8104 H   0  0  0  0  0  0  0  0  0  0  0  0
   51.4065   -0.9164  -21.9608 H   0  0  0  0  0  0  0  0  0  0  0  0
   51.6275   -1.1272  -24.4397 H   0  0  0  0  0  0  0  0  0  0  0  0
   51.6254   -2.8900  -24.2905 H   0  0  0  0  0  0  0  0  0  0  0  0
   53.6600   -2.7710  -22.8468 H   0  0  0  0  0  0  0  0  0  0  0  0
   53.6618   -1.0081  -22.9935 H   0  0  0  0  0  0  0  0  0  0  0  0
   53.8828   -1.2138  -25.4728 H   0  0  0  0  0  0  0  0  0  0  0  0
   53.8790   -2.9769  -25.3274 H   0  0  0  0  0  0  0  0  0  0  0  0
   55.9134   -2.8622  -23.8820 H   0  0  0  0  0  0  0  0  0  0  0  0
   55.9172   -1.0991  -24.0274 H   0  0  0  0  0  0  0  0  0  0  0  0
   56.1362   -1.3049  -26.5080 H   0  0  0  0  0  0  0  0  0  0  0  0
   56.1344   -3.0679  -26.3613 H   0  0  0  0  0  0  0  0  0  0  0  0
   58.1690   -2.9505  -24.9174 H   0  0  0  0  0  0  0  0  0  0  0  0
   58.1704   -1.1873  -25.0617 H   0  0  0  0  0  0  0  0  0  0  0  0
   58.3914   -1.3896  -27.5413 H   0  0  0  0  0  0  0  0  0  0  0  0
   58.3880   -3.1529  -27.3983 H   0  0  0  0  0  0  0  0  0  0  0  0
   60.4226   -3.0404  -25.9540 H   0  0  0  0  0  0  0  0  0  0  0  0
   60.4256   -1.2770  -26.0946 H   0  0  0  0  0  0  0  0  0  0  0  0
   60.6446   -1.4758  -28.5757 H   0  0  0  0  0  0  0  0  0  0  0  0
   60.6437   -3.2392  -28.4339 H   0  0  0  0  0  0  0  0  0  0  0  0
   62.6779   -3.1231  -26.9875 H   0  0  0  0  0  0  0  0  0  0  0  0
   62.6791   -1.3599  -27.1317 H   0  0  0  0  0  0  0  0  0  0  0  0
   62.8991   -1.5630  -29.6119 H   0  0  0  0  0  0  0  0  0  0  0  0
   62.8979   -3.3262  -29.4677 H   0  0  0  0  0  0  0  0  0  0  0  0
   64.9325   -3.2102  -28.0236 H   0  0  0  0  0  0  0  0  0  0  0  0
   64.9333   -1.4468  -28.1654 H   0  0  0  0  0  0  0  0  0  0  0  0
   65.1534   -1.6464  -30.6459 H   0  0  0  0  0  0  0  0  0  0  0  0
   65.1525   -3.4098  -30.5041 H   0  0  0  0  0  0  0  0  0  0  0  0
   67.1869   -3.2945  -29.0588 H   0  0  0  0  0  0  0  0  0  0  0  0
   67.1877   -1.5311  -29.2006 H   0  0  0  0  0  0  0  0  0  0  0  0
   67.4078   -1.7307  -31.6811 H   0  0  0  0  0  0  0  0  0  0  0  0
   67.4069   -3.4941  -31.5393 H   0  0  0  0  0  0  0  0  0  0  0  0
   69.4413   -3.3788  -30.0940 H   0  0  0  0  0  0  0  0  0  0  0  0
   69.4422   -1.6154  -30.2357 H   0  0  0  0  0  0  0  0  0  0  0  0
   69.6622   -1.8150  -32.7162 H   0  0  0  0  0  0  0  0  0  0  0  0
   69.6614   -3.5784  -32.5744 H   0  0  0  0  0  0  0  0  0  0  0  0
   71.6958   -3.4631  -31.1291 H   0  0  0  0  0  0  0  0  0  0  0  0
   71.6966   -1.6997  -31.2709 H   0  0  0  0  0  0  0  0  0  0  0  0
   71.9166   -1.8992  -33.7514 H   0  0  0  0  0  0  0  0  0  0  0  0
   71.9158   -3.6626  -33.6096 H   0  0  0  0  0  0  0  0  0  0  0  0
   73.9502   -3.5474  -32.1643 H   0  0  0  0  0  0  0  0  0  0  0  0
   73.9510   -1.7840  -32.3061 H   0  0  0  0  0  0  0  0  0  0  0  0
   74.1710   -1.9835  -34.7866 H   0  0  0  0  0  0  0  0  0  0  0  0
   74.1702   -3.7469  -34.6448 H   0  0  0  0  0  0  0  0  0  0  0  0
   76.2048   -3.6325  -33.2007 H   0  0  0  0  0  0  0  0  0  0  0  0
   76.2052   -1.8689  -33.3400 H   0  0  0  0  0  0  0  0  0  0  0  0
   76.4253   -2.0650  -35.8208 H   0  0  0  0  0  0  0  0  0  0  0  0
   76.4250   -3.8285  -35.6814 H   0  0  0  0  0  0  0  0  0  0  0  0
   78.4595   -3.7148  -34.2361 H   0  0  0  0  0  0  0  0  0  0  0  0
   78.4598   -1.9512  -34.3755 H   0  0  0  0  0  0  0  0  0  0  0  0
   78.6804   -2.1473  -36.8562 H   0  0  0  0  0  0  0  0  0  0  0  0
   78.6800   -3.9108  -36.7169 H   0  0  0  0  0  0  0  0  0  0  0  0
   80.7148   -3.7971  -35.2718 H   0  0  0  0  0  0  0  0  0  0  0  0
   80.7152   -2.0335  -35.4110 H   0  0  0  0  0  0  0  0  0  0  0  0
   80.9372   -2.2299  -37.8916 H   0  0  0  0  0  0  0  0  0  0  0  0
   80.9373   -3.9930  -37.7521 H   0  0  0  0  0  0  0  0  0  0  0  0
   82.9731   -3.8806  -36.3084 H   0  0  0  0  0  0  0  0  0  0  0  0
   82.9734   -2.1159  -36.4460 H   0  0  0  0  0  0  0  0  0  0  0  0
   83.1992   -2.2972  -38.9190 H   0  0  0  0  0  0  0  0  0  0  0  0
   83.1897   -4.0717  -38.7966 H   0  0  0  0  0  0  0  0  0  0  0  0
   85.1540   -3.9272  -37.4263 H   0  0  0  0  0  0  0  0  0  0  0  0
   85.4056   -2.4286  -39.8383 H   0  0  0  0  0  0  0  0  0  0  0  0
   87.2056   -3.9883  -38.3505 H   0  0  0  0  0  0  0  0  0  0  0  0
   87.4368   -2.5326  -40.8085 H   0  0  0  0  0  0  0  0  0  0  0  0
   89.4193   -4.0518  -39.3614 H   0  0  0  0  0  0  0  0  0  0  0  0
   89.4171   -2.4183  -39.4720 H   0  0  0  0  0  0  0  0  0  0  0  0
  1  2  2  0  0  0  0
  1 81  1  0  0  0  0
  1 82  1  0  0  0  0
  2  3  1  0  0  0  0
  2 83  1  0  0  0  0
  3  4  1  0  0  0  0
  3 84  1  0  0  0  0
  3 85  1  0  0  0  0
  4  5  1  0  0  0  0
  4 86  1  0  0  0  0
  5  6  1  0  0  0  0
  5 87  1  0  0  0  0
  6  7  1  0  0  0  0
  6 88  1  0  0  0  0
  7  8  1  0  0  0  0
  7 89  1  0  0  0  0
  8  9  1  0  0  0  0
  8 90  1  0  0  0  0
  9 10  1  0  0  0  0
  9 91  1  0  0  0  0
 10 11  1  0  0  0  0
 10 92  1  0  0  0  0
 11 12  1  0  0  0  0
 11 93  1  0  0  0  0
 12 13  1  0  0  0  0
 12 94  1  0  0  0  0
 13 14  1  0  0  0  0
 13 95  1  0  0  0  0
 14 15  1  0  0  0  0
 14 96  1  0  0  0  0
 15 16  1  0  0  0  0
 15 97  1  0  0  0  0
 15 98  1  0  0  0  0
 16 17  1  0  0  0  0
 16 99  1  0  0  0  0
 16100  1  0  0  0  0
 17 18  1  0  0  0  0
 17101  1  0  0  0  0
 17102  1  0  0  0  0
 18 19  1  0  0  0  0
 18103  1  0  0  0  0
 18104  1  0  0  0  0
 19 20  1  0  0  0  0
 19105  1  0  0  0  0
 19106  1  0  0  0  0
 20 21  1  0  0  0  0
 20107  1  0  0  0  0
 20108  1  0  0  0  0
 21 22  1  0  0  0  0
 21109  1  0  0  0  0
 21110  1  0  0  0  0
 22 23  1  0  0  0  0
 22111  1  0  0  0  0
 22112  1  0  0  0  0
 23 24  1  0  0  0  0
 23113  1  0  0  0  0
 23114  1  0  0  0  0
 24 25  1  0  0  0  0
 24115  1  0  0  0  0
 24116  1  0  0  0  0
 25 26  1  0  0  0  0
 25117  1  0  0  0  0
 25118  1  0  0  0  0
 26 27  1  0  0  0  0
 26119  1  0  0  0  0
 26120  1  0  0  0  0
 27 28  1  0  0  0  0
 27121  1  0  0  0  0
 27122  1  0  0  0  0
 28 29  1  0  0  0  0
 28123  1  0  0  0  0
 28124  1  0  0  0  0
 29 30  1  0  0  0  0
 29125  1  0  0  0  0
 29126  1  0  0  0  0
 30 31  1  0  0  0  0
 30127  1  0  0  0  0
 30128  1  0  0  0  0
 31 32  1  0  0  0  0
 31129  1  0  0  0  0
 31130  1  0  0  0  0
 32 33  1  0  0  0  0
 32131  1  0  0  0  0
 32132  1  0  0  0  0
 33 34  1  0  0  0  0
 33133  1  0  0  0  0
 33134  1  0  0  0  0
 34 35  1  0  0  0  0
 34135  1  0  0  0  0
 34136  1  0  0  0  0
 35 36  1  0  0  0  0
 35137  1  0  0  0  0
 35138  1  0  0  0  0
 36 37  1  0  0  0  0
 36139  1  0  0  0  0
 36140  1  0  0  0  0
 37 38  1  0  0  0  0
 37141  1  0  0  0  0
 37142  1  0  0  0  0
 38 39  1  0  0  0  0
 38143  1  0  0  0  0
 38144  1  0  0  0  0
 39 40  1  0  0  0  0
 39145  1  0  0  0  0
 39146  1  0  0  0  0
 40 41  1  0  0  0  0
 40147  1  0  0  0  0
 40148  1  0  0  0  0
 41 42  1  0  0  0  0
 41149  1  0  0  0  0
 41150  1  0  0  0  0
 42 43  1  0  0  0  0
 42151  1  0  0  0  0
 42152  1  0  0  0  0
 43 44  1  0  0  0  0
 43153  1  0  0  0  0
 43154  1  0  0  0  0
 44 45  1  0  0  0  0
 44155  1  0  0  0  0
 44156  1  0  0  0  0
 45 46  1  0  0  0  0
 45157  1  0  0  0  0
 45158  1  0  0  0  0
 46 47  1  0  0  0  0
 46159  1  0  0  0  0
 46160  1  0  0  0  0
 47 48  1  0  0  0  0
 47161  1  0  0  0  0
 47162  1  0  0  0  0
 48 49  1  0  0  0  0
 48163  1  0  0  0  0
 48164  1  0  0  0  0
 49 50  1  0  0  0  0
 49165  1  0  0  0  0
 49166  1  0  0  0  0
 50 51  1  0  0  0  0
 50167  1  0  0  0  0
 50168  1  0  0  0  0
 51 52  1  0  0  0  0
 51169  1  0  0  0  0
 51170  1  0  0  0  0
 52 53  1  0  0  0  0
 52171  1  0  0  0  0
 52172  1  0  0  0  0
 53 54  1  0  0  0  0
 53173  1  0  0  0  0
 53174  1  0  0  0  0
 54 55  1  0  0  0  0
 54175  1  0  0  0  0
 54176  1  0  0  0  0
 55 56  1  0  0  0  0
 55177  1  0  0  0  0
 55178  1  0  0  0  0
 56 57  1  0  0  0  0
 56179  1  0  0  0  0
 56180  1  0  0  0  0
 57 58  1  0  0  0  0
 57181  1  0  0  0  0
 57182  1  0  0  0  0
 58 59  1  0  0  0  0
 58183  1  0  0  0  0
 58184  1  0  0  0  0
 59 60  1  0  0  0  0
 59185  1  0  0  0  0
 59186  1  0  0  0  0
 60 61  1  0  0  0  0
 60187  1  0  0  0  0
 60188  1  0  0  0  0
 61 62  1  0  0  0  0
 61189  1  0  0  0  0
 61190  1  0  0  0  0
 62 63  1  0  0  0  0
 62191  1  0  0  0  0
 62192  1  0  0  0  0
 63 64  1  0  0  0  0
 63193  1  0  0  0  0
 63194  1  0  0  0  0
 64 65  1  0  0  0  0
 64195  1  0  0  0  0
 64196  1  0  0  0  0
 65 66  1  0  0  0  0
 65197  1  0  0  0  0
 65198  1  0  0  0  0
 66 67  1  0  0  0  0
 66199  1  0  0  0  0
 66200  1  0  0  0  0
 67 68  1  0  0  0  0
 67201  1  0  0  0  0
 67202  1  0  0  0  0
 68 69  1  0  0  0  0
 68203  1  0  0  0  0
 68204  1  0  0  0  0
 69 70  1  0  0  0  0
 69205  1  0  0  0  0
 69206  1  0  0  0  0
 70 71  1  0  0  0  0
 70207  1  0  0  0  0
 70208  1  0  0  0  0
 71 72  1  0  0  0  0
 71209  1  0  0  0  0
 71210  1  0  0  0  0
 72 73  1  0  0  0  0
 72211  1  0  0  0  0
 72212  1  0  0  0  0
 73 74  1  0  0  0  0
 73213  1  0  0  0  0
 73214  1  0  0  0  0
 74 75  1  0  0  0  0
 74215  1  0  0  0  0
 74216  1  0  0  0  0
 75 76  1  0  0  0  0
 75217  1  0  0  0  0
 75218  1  0  0  0  0
 76 77  1  0  0  0  0
 76219  1  0  0  0  0
 77 78  1  0  0  0  0
 77220  1  0  0  0  0
 78 79  1  0  0  0  0
 78221  1  0  0  0  0
 79 80  1  0  0  0  0
 79222  1  0  0  0  0
 80223  1  0  0  0  0
 80224  1  0  0  0  0
M  END
$$$$
