
 OpenBabel04232216443D

 68 68  0  0  1  0  0  0  0  0999 V2000
    6.4740    0.6857    0.6920 C   0  0  0  0  0  0  0  0  0  0  0  0
    6.8941   -0.2525    1.8654 C   0  0  0  0  0  0  0  0  0  0  0  0
    5.3757   -1.0393    1.9193 C   0  0  3  0  0  3  0  0  0  0  0  0
    3.7378   -0.7395    1.9594 C   0  0  0  0  0  0  0  0  0  0  0  0
    2.7274   -1.0950    0.7600 C   0  0  0  0  0  0  0  0  0  0  0  0
    5.3848   -2.4526    1.3688 C   0  0  0  0  0  0  0  0  0  0  0  0
    5.2344   -3.3428    2.6028 C   0  0  0  0  0  0  0  0  0  0  0  0
    6.4822   -2.9669    3.3071 C   0  0  0  0  0  0  0  0  0  0  0  0
    7.1252   -3.7912    4.3391 C   0  0  0  0  0  0  0  0  0  0  0  0
    8.5638   -3.3754    4.1028 C   0  0  0  0  0  0  0  0  0  0  0  0
    9.4373   -4.4877    3.6794 C   0  0  0  0  0  0  0  0  0  0  0  0
   10.1069   -4.1092    2.3883 C   0  0  0  0  0  0  0  0  0  0  0  0
    9.5803   -4.1728    1.2705 O   0  0  0  0  0  0  0  0  0  0  0  0
   11.3724   -3.5142    2.5074 C   0  0  0  0  0  0  0  0  0  0  0  0
   11.6581   -2.2258    2.7171 C   0  0  0  0  0  0  0  0  0  0  0  0
   11.0411   -1.3256    3.8117 C   0  0  0  0  0  0  0  0  0  0  0  0
   12.3898   -0.4101    3.9886 C   0  0  0  0  0  0  0  0  0  0  0  0
   12.7658    0.7804    4.8062 C   0  0  0  0  0  0  0  0  0  0  0  0
   11.6708    1.3720    5.6557 C   0  0  0  0  0  0  0  0  0  0  0  0
   12.0721    2.7740    6.0289 C   0  0  0  0  0  0  0  0  0  0  0  0
   10.9200    3.4621    6.7372 C   0  0  0  0  0  0  0  0  0  0  0  0
   11.2664    4.9099    7.0027 C   0  0  0  0  0  0  0  0  0  0  0  0
   11.1789   -2.1881    5.3451 C   0  0  0  0  0  0  0  0  0  0  0  0
   12.5194   -2.9391    5.8330 C   0  0  0  0  0  0  0  0  0  0  0  0
   12.2997   -3.9105    6.8761 O   0  0  0  0  0  0  0  0  0  0  0  0
    9.3558   -0.6986    3.5523 N   0  0  0  0  0  0  0  0  0  0  0  0
    8.3531   -0.2501    2.3481 C   0  0  0  0  0  0  0  0  0  0  0  0
    5.3890    0.9172    0.7109 H   0  0  0  0  0  0  0  0  0  0  0  0
    6.6285    0.1758   -0.2662 H   0  0  0  0  0  0  0  0  0  0  0  0
    6.9450    1.6672    0.6985 H   0  0  0  0  0  0  0  0  0  0  0  0
    3.4047    0.1615    2.4842 H   0  0  0  0  0  0  0  0  0  0  0  0
    3.3739   -1.5110    2.6646 H   0  0  0  0  0  0  0  0  0  0  0  0
    2.3554   -0.2147    0.2277 H   0  0  0  0  0  0  0  0  0  0  0  0
    1.8239   -1.6097    1.1473 H   0  0  0  0  0  0  0  0  0  0  0  0
    3.1001   -1.7842   -0.0055 H   0  0  0  0  0  0  0  0  0  0  0  0
    4.5938   -2.6725    0.6558 H   0  0  0  0  0  0  0  0  0  0  0  0
    6.2954   -2.6000    0.7746 H   0  0  0  0  0  0  0  0  0  0  0  0
    5.1830   -4.3938    2.3209 H   0  0  0  0  0  0  0  0  0  0  0  0
    4.3749   -3.1181    3.2473 H   0  0  0  0  0  0  0  0  0  0  0  0
    6.4037   -1.9552    3.7502 H   0  0  0  0  0  0  0  0  0  0  0  0
    7.1754   -2.9271    2.4588 H   0  0  0  0  0  0  0  0  0  0  0  0
    6.9492   -4.8491    4.1928 H   0  0  0  0  0  0  0  0  0  0  0  0
    6.7946   -3.4732    5.3306 H   0  0  0  0  0  0  0  0  0  0  0  0
    8.8215   -2.7247    4.9667 H   0  0  0  0  0  0  0  0  0  0  0  0
    8.6478   -2.6248    3.2887 H   0  0  0  0  0  0  0  0  0  0  0  0
    8.9280   -5.4182    3.4838 H   0  0  0  0  0  0  0  0  0  0  0  0
   10.2191   -4.6824    4.4163 H   0  0  0  0  0  0  0  0  0  0  0  0
   12.2586   -4.2625    2.5208 H   0  0  0  0  0  0  0  0  0  0  0  0
   12.7190   -2.1000    2.5643 H   0  0  0  0  0  0  0  0  0  0  0  0
   12.9224   -0.2650    3.0417 H   0  0  0  0  0  0  0  0  0  0  0  0
   13.0994   -1.1179    4.4647 H   0  0  0  0  0  0  0  0  0  0  0  0
   13.1354    1.5572    4.0979 H   0  0  0  0  0  0  0  0  0  0  0  0
   13.6434    0.5940    5.4471 H   0  0  0  0  0  0  0  0  0  0  0  0
   11.5235    0.7501    6.5418 H   0  0  0  0  0  0  0  0  0  0  0  0
   10.7299    1.3711    5.0767 H   0  0  0  0  0  0  0  0  0  0  0  0
   12.3480    3.3429    5.1368 H   0  0  0  0  0  0  0  0  0  0  0  0
   12.9654    2.7556    6.6810 H   0  0  0  0  0  0  0  0  0  0  0  0
   10.6938    2.9421    7.6757 H   0  0  0  0  0  0  0  0  0  0  0  0
   10.0259    3.4065    6.1037 H   0  0  0  0  0  0  0  0  0  0  0  0
   12.1468    4.9829    7.6485 H   0  0  0  0  0  0  0  0  0  0  0  0
   10.4354    5.4197    7.4881 H   0  0  0  0  0  0  0  0  0  0  0  0
   11.4886    5.4288    6.0635 H   0  0  0  0  0  0  0  0  0  0  0  0
   10.4646   -2.9806    5.4469 H   0  0  0  0  0  0  0  0  0  0  0  0
   10.9162   -1.4933    6.1324 H   0  0  0  0  0  0  0  0  0  0  0  0
   13.2348   -2.2358    6.2777 H   0  0  0  0  0  0  0  0  0  0  0  0
   13.0196   -3.4882    5.0267 H   0  0  0  0  0  0  0  0  0  0  0  0
   13.2100   -4.2621    7.1679 H   0  0  0  0  0  0  0  0  0  0  0  0
    8.9444    0.4321    1.7287 H   0  0  0  0  0  0  0  0  0  0  0  0
  1  2  1  0  0  0  0
  1 28  1  0  0  0  0
  1 29  1  0  0  0  0
  1 30  1  0  0  0  0
  2  3  1  0  0  0  0
  2 27  2  3  0  0  0
  3  4  1  0  0  0  0
  3  6  1  0  0  0  0
  4  5  1  0  0  0  0
  4 31  1  0  0  0  0
  4 32  1  0  0  0  0
  5 33  1  0  0  0  0
  5 34  1  0  0  0  0
  5 35  1  0  0  0  0
  6  7  1  0  0  0  0
  6 36  1  0  0  0  0
  6 37  1  0  0  0  0
  7  8  1  0  0  0  0
  7 38  1  0  0  0  0
  7 39  1  0  0  0  0
  8  9  1  0  0  0  0
  8 40  1  0  0  0  0
  8 41  1  0  0  0  0
  9 10  1  0  0  0  0
  9 42  1  0  0  0  0
  9 43  1  0  0  0  0
 10 11  1  0  0  0  0
 10 44  1  0  0  0  0
 10 45  1  0  0  0  0
 11 12  1  0  0  0  0
 11 46  1  0  0  0  0
 11 47  1  0  0  0  0
 12 13  2  0  0  0  0
 12 14  1  0  0  0  0
 14 15  2  3  0  0  0
 14 48  1  0  0  0  0
 15 16  1  0  0  0  0
 15 49  1  0  0  0  0
 16 17  1  0  0  0  0
 16 23  1  0  0  0  0
 16 26  2  0  0  0  0
 17 18  1  0  0  0  0
 17 50  1  0  0  0  0
 17 51  1  0  0  0  0
 18 19  1  0  0  0  0
 18 52  1  0  0  0  0
 18 53  1  0  0  0  0
 19 20  1  0  0  0  0
 19 54  1  0  0  0  0
 19 55  1  0  0  0  0
 20 21  1  0  0  0  0
 20 56  1  0  0  0  0
 20 57  1  0  0  0  0
 21 22  1  0  0  0  0
 21 58  1  0  0  0  0
 21 59  1  0  0  0  0
 22 60  1  0  0  0  0
 22 61  1  0  0  0  0
 22 62  1  0  0  0  0
 23 24  1  0  0  0  0
 23 63  1  0  0  0  0
 23 64  1  0  0  0  0
 24 25  1  0  0  0  0
 24 65  1  0  0  0  0
 24 66  1  0  0  0  0
 25 67  1  0  0  0  0
 26 27  1  0  0  0  0
 27 68  1  0  0  0  0
M  END
$$$$
