
 OpenBabel04232216433D

 36 36  0  0  0  0  0  0  0  0999 V2000
   -0.5110   -2.0211    1.8246 C   0  0  0  0  0  0  0  0  0  0  0  0
   -1.7213   -1.2035    2.0946 C   0  0  0  0  0  0  0  0  0  0  0  0
   -1.7094    0.1304    1.9771 C   0  0  0  0  0  0  0  0  0  0  0  0
   -0.5701    0.9223    1.5601 C   0  0  0  0  0  0  0  0  0  0  0  0
    0.0956    0.7635    0.4083 C   0  0  0  0  0  0  0  0  0  0  0  0
   -0.2573   -0.2152   -0.6011 C   0  0  0  0  0  0  0  0  0  0  0  0
   -0.3013   -1.5491   -0.4118 C   0  0  0  0  0  0  0  0  0  0  0  0
   -0.8020   -2.4597   -1.5110 C   0  0  0  0  0  0  0  0  0  0  0  0
   -2.3033   -2.7166   -1.3473 C   0  0  0  0  0  0  0  0  0  0  0  0
   -2.8422   -3.6388   -2.4385 C   0  0  0  0  0  0  0  0  0  0  0  0
   -4.3434   -3.8651   -2.2587 C   0  0  0  0  0  0  0  0  0  0  0  0
   -4.9026   -4.7866   -3.3402 C   0  0  0  0  0  0  0  0  0  0  0  0
   -6.4028   -5.0063   -3.1515 C   0  0  0  0  0  0  0  0  0  0  0  0
   -6.9658   -5.9227   -4.2237 C   0  0  0  0  0  0  0  0  0  0  0  0
    0.1427   -2.1908    0.7214 N   0  0  0  0  0  0  0  0  0  0  0  0
   -0.1512   -2.5779    2.7066 H   0  0  0  0  0  0  0  0  0  0  0  0
   -2.5958   -1.7454    2.4333 H   0  0  0  0  0  0  0  0  0  0  0  0
   -2.6069    0.6906    2.2250 H   0  0  0  0  0  0  0  0  0  0  0  0
   -0.2795    1.7266    2.2351 H   0  0  0  0  0  0  0  0  0  0  0  0
    0.9143    1.4322    0.1562 H   0  0  0  0  0  0  0  0  0  0  0  0
   -0.5527    0.2033   -1.5577 H   0  0  0  0  0  0  0  0  0  0  0  0
   -0.2521   -3.4089   -1.4867 H   0  0  0  0  0  0  0  0  0  0  0  0
   -0.6077   -2.0158   -2.4955 H   0  0  0  0  0  0  0  0  0  0  0  0
   -2.8472   -1.7631   -1.3784 H   0  0  0  0  0  0  0  0  0  0  0  0
   -2.5034   -3.1635   -0.3651 H   0  0  0  0  0  0  0  0  0  0  0  0
   -2.3153   -4.5998   -2.4028 H   0  0  0  0  0  0  0  0  0  0  0  0
   -2.6499   -3.1977   -3.4239 H   0  0  0  0  0  0  0  0  0  0  0  0
   -4.8663   -2.9013   -2.2915 H   0  0  0  0  0  0  0  0  0  0  0  0
   -4.5333   -4.3012   -1.2702 H   0  0  0  0  0  0  0  0  0  0  0  0
   -4.3816   -5.7512   -3.3078 H   0  0  0  0  0  0  0  0  0  0  0  0
   -4.7152   -4.3503   -4.3289 H   0  0  0  0  0  0  0  0  0  0  0  0
   -6.9275   -4.0442   -3.1858 H   0  0  0  0  0  0  0  0  0  0  0  0
   -6.5939   -5.4441   -2.1645 H   0  0  0  0  0  0  0  0  0  0  0  0
   -6.8171   -5.4954   -5.2205 H   0  0  0  0  0  0  0  0  0  0  0  0
   -8.0395   -6.0691   -4.0723 H   0  0  0  0  0  0  0  0  0  0  0  0
   -6.4804   -6.9034   -4.1939 H   0  0  0  0  0  0  0  0  0  0  0  0
  1  2  1  0  0  0  0
  1 15  2  0  0  0  0
  1 16  1  0  0  0  0
  2  3  2  0  0  0  0
  2 17  1  0  0  0  0
  3  4  1  0  0  0  0
  3 18  1  0  0  0  0
  4  5  2  0  0  0  0
  4 19  1  0  0  0  0
  5  6  1  0  0  0  0
  5 20  1  0  0  0  0
  6  7  2  0  0  0  0
  6 21  1  0  0  0  0
  7  8  1  0  0  0  0
  7 15  1  0  0  0  0
  8  9  1  0  0  0  0
  8 22  1  0  0  0  0
  8 23  1  0  0  0  0
  9 10  1  0  0  0  0
  9 24  1  0  0  0  0
  9 25  1  0  0  0  0
 10 11  1  0  0  0  0
 10 26  1  0  0  0  0
 10 27  1  0  0  0  0
 11 12  1  0  0  0  0
 11 28  1  0  0  0  0
 11 29  1  0  0  0  0
 12 13  1  0  0  0  0
 12 30  1  0  0  0  0
 12 31  1  0  0  0  0
 13 14  1  0  0  0  0
 13 32  1  0  0  0  0
 13 33  1  0  0  0  0
 14 34  1  0  0  0  0
 14 35  1  0  0  0  0
 14 36  1  0  0  0  0
M  END
$$$$
