
 OpenBabel04232216553D

 50 51  0  0  0  0  0  0  0  0999 V2000
    3.0801   -1.3788    0.8511 C   0  0  0  0  0  0  0  0  0  0  0  0
    4.2575   -0.4801    0.8935 N   0  0  0  0  0  0  0  0  0  0  0  0
    4.1033    0.9346    0.6700 C   0  0  0  0  0  0  0  0  0  0  0  0
    2.6688    1.5243    0.6393 C   0  0  0  0  0  0  0  0  0  0  0  0
    1.9596    1.0956   -0.5334 O   0  0  0  0  0  0  0  0  0  0  0  0
    5.1199    1.7720    0.3336 C   0  0  0  0  0  0  0  0  0  0  0  0
    5.0769    3.2995    0.1862 C   0  0  0  0  0  0  0  0  0  0  0  0
    5.1827    3.8979   -1.2361 C   0  0  0  0  0  0  0  0  0  0  0  0
    3.9864    3.6336   -2.1347 C   0  0  0  0  0  0  0  0  0  0  0  0
    6.3069    1.2005   -0.2536 C   0  0  0  0  0  0  0  0  0  0  0  0
    6.9163    0.0146   -0.0463 C   0  0  0  0  0  0  0  0  0  0  0  0
    7.7558   -0.4684   -1.0976 C   0  0  0  0  0  0  0  0  0  0  0  0
    8.8278    0.2315   -1.4656 C   0  0  0  0  0  0  0  0  0  0  0  0
    9.8532   -0.4271   -2.1997 C   0  0  0  0  0  0  0  0  0  0  0  0
   11.0937    0.0844   -2.1588 C   0  0  0  0  0  0  0  0  0  0  0  0
   12.0953   -0.9106   -1.8088 C   0  0  0  0  0  0  0  0  0  0  0  0
   12.3163   -0.9170   -0.4799 C   0  0  0  0  0  0  0  0  0  0  0  0
   11.6747   -1.9873    0.3395 C   0  0  0  0  0  0  0  0  0  0  0  0
   12.9009   -2.8732    0.6780 C   0  0  0  0  0  0  0  0  0  0  0  0
   10.6630   -1.5059    1.1491 C   0  0  0  0  0  0  0  0  0  0  0  0
    9.3069   -2.1325    1.4899 C   0  0  0  0  0  0  0  0  0  0  0  0
    7.9442   -1.8764    1.4811 C   0  0  0  0  0  0  0  0  0  0  0  0
    6.6425   -0.9332    1.0346 C   0  0  0  0  0  0  0  0  0  0  0  0
    5.4181   -1.1582    1.4701 N   0  0  0  0  0  0  0  0  0  0  0  0
    2.1356   -0.8849    0.6113 H   0  0  0  0  0  0  0  0  0  0  0  0
    2.9247   -1.8767    1.8123 H   0  0  0  0  0  0  0  0  0  0  0  0
    3.2293   -2.1321    0.0713 H   0  0  0  0  0  0  0  0  0  0  0  0
    2.6312    2.6128    0.5932 H   0  0  0  0  0  0  0  0  0  0  0  0
    2.0860    1.2447    1.5215 H   0  0  0  0  0  0  0  0  0  0  0  0
    2.6167    0.9962   -1.2432 H   0  0  0  0  0  0  0  0  0  0  0  0
    5.9261    3.6946    0.7635 H   0  0  0  0  0  0  0  0  0  0  0  0
    4.2093    3.7453    0.6834 H   0  0  0  0  0  0  0  0  0  0  0  0
    6.0847    3.5489   -1.7478 H   0  0  0  0  0  0  0  0  0  0  0  0
    5.3122    4.9834   -1.1467 H   0  0  0  0  0  0  0  0  0  0  0  0
    3.8139    2.5649   -2.2783 H   0  0  0  0  0  0  0  0  0  0  0  0
    4.1641    4.0723   -3.1236 H   0  0  0  0  0  0  0  0  0  0  0  0
    3.0797    4.0904   -1.7271 H   0  0  0  0  0  0  0  0  0  0  0  0
    6.6445    1.7363   -1.1251 H   0  0  0  0  0  0  0  0  0  0  0  0
    7.5514   -1.4719   -1.4526 H   0  0  0  0  0  0  0  0  0  0  0  0
    9.0381    1.1769   -0.9754 H   0  0  0  0  0  0  0  0  0  0  0  0
    9.7031   -1.5008   -2.3438 H   0  0  0  0  0  0  0  0  0  0  0  0
   11.2528    1.1020   -1.7998 H   0  0  0  0  0  0  0  0  0  0  0  0
   11.9486   -1.8646   -2.3205 H   0  0  0  0  0  0  0  0  0  0  0  0
   12.4453    0.0251    0.0554 H   0  0  0  0  0  0  0  0  0  0  0  0
   12.6540   -3.9383    0.6831 H   0  0  0  0  0  0  0  0  0  0  0  0
   13.3939   -2.5919    1.6149 H   0  0  0  0  0  0  0  0  0  0  0  0
   13.6956   -2.7900   -0.0932 H   0  0  0  0  0  0  0  0  0  0  0  0
   11.0926   -1.3646    2.1597 H   0  0  0  0  0  0  0  0  0  0  0  0
    9.5549   -3.0716    2.0061 H   0  0  0  0  0  0  0  0  0  0  0  0
    7.4224   -2.6900    2.0045 H   0  0  0  0  0  0  0  0  0  0  0  0
  1  2  1  0  0  0  0
  1 25  1  0  0  0  0
  1 26  1  0  0  0  0
  1 27  1  0  0  0  0
  2  3  1  0  0  0  0
  2 24  1  0  0  0  0
  3  4  1  0  0  0  0
  3  6  2  0  0  0  0
  4  5  1  0  0  0  0
  4 28  1  0  0  0  0
  4 29  1  0  0  0  0
  5 30  1  0  0  0  0
  6  7  1  0  0  0  0
  6 10  1  0  0  0  0
  7  8  1  0  0  0  0
  7 31  1  0  0  0  0
  7 32  1  0  0  0  0
  8  9  1  0  0  0  0
  8 33  1  0  0  0  0
  8 34  1  0  0  0  0
  9 35  1  0  0  0  0
  9 36  1  0  0  0  0
  9 37  1  0  0  0  0
 10 11  2  0  0  0  0
 10 38  1  0  0  0  0
 11 12  1  0  0  0  0
 11 23  1  0  0  0  0
 12 13  2  3  0  0  0
 12 39  1  0  0  0  0
 13 14  1  0  0  0  0
 13 40  1  0  0  0  0
 14 15  2  3  0  0  0
 14 41  1  0  0  0  0
 15 16  1  0  0  0  0
 15 42  1  0  0  0  0
 16 17  2  3  0  0  0
 16 43  1  0  0  0  0
 17 18  1  0  0  0  0
 17 44  1  0  0  0  0
 18 19  1  0  0  0  0
 18 20  2  3  0  0  0
 19 45  1  0  0  0  0
 19 46  1  0  0  0  0
 19 47  1  0  0  0  0
 20 21  1  0  0  0  0
 20 48  1  0  0  0  0
 21 22  2  3  0  0  0
 21 49  1  0  0  0  0
 22 23  1  0  0  0  0
 22 50  1  0  0  0  0
 23 24  2  0  0  0  0
M  END
$$$$
