
 OpenBabel04232216493D

 68 69  0  0  1  0  0  0  0  0999 V2000
    2.5470   -0.0516   -1.4408 C   0  0  0  0  0  0  0  0  0  0  0  0
    3.8604    0.1758   -0.6944 C   0  0  3  0  0  0  0  0  0  0  0  0
    4.9210   -0.8798   -1.0053 C   0  0  0  0  0  0  0  0  0  0  0  0
    6.1182   -0.8944   -0.0404 C   0  0  0  0  0  0  0  0  0  0  0  0
    5.7672   -0.8157    1.4546 C   0  0  0  0  0  0  0  0  0  0  0  0
    5.9793    0.5566    2.1131 C   0  0  0  0  0  0  0  0  0  0  0  0
    5.0473    1.7301    1.7208 C   0  0  3  0  0  0  0  0  0  0  0  0
    3.6128    1.5257    2.2734 C   0  0  0  0  0  0  0  0  0  0  0  0
    2.6213    2.6353    1.9296 C   0  0  0  0  0  0  0  0  0  0  0  0
    1.2281    2.3537    2.5069 C   0  0  0  0  0  0  0  0  0  0  0  0
    0.2830    3.4937    2.1381 C   0  0  0  0  0  0  0  0  0  0  0  0
   -1.1225    3.2847    2.6775 C   0  0  0  0  0  0  0  0  0  0  0  0
   -2.0275    4.4410    2.2752 C   0  0  0  0  0  0  0  0  0  0  0  0
   -1.6482    5.4005    1.6240 O   0  0  0  0  0  0  0  0  0  0  0  0
   -3.4413    4.3579    2.6885 C   0  0  0  0  0  0  0  0  0  0  0  0
   -3.9602    3.3577    3.4203 C   0  0  0  0  0  0  0  0  0  0  0  0
   -5.3763    3.5715    3.5543 C   0  0  0  0  0  0  0  0  0  0  0  0
   -5.7345    4.6828    2.9005 C   0  0  0  0  0  0  0  0  0  0  0  0
   -7.1197    5.2322    2.7848 C   0  0  0  0  0  0  0  0  0  0  0  0
   -7.6111    5.3455    1.3412 C   0  0  0  0  0  0  0  0  0  0  0  0
   -9.0362    5.9002    1.2784 C   0  0  0  0  0  0  0  0  0  0  0  0
   -9.5098    6.0126   -0.1705 C   0  0  0  0  0  0  0  0  0  0  0  0
  -10.9238    6.5619   -0.2541 C   0  0  0  0  0  0  0  0  0  0  0  0
   -4.5095    5.3300    2.2877 C   0  0  0  0  0  0  0  0  0  0  0  0
    5.2580    2.1628    0.2479 C   0  0  0  0  0  0  0  0  0  0  0  0
    4.3685    1.6050   -0.8727 C   0  0  0  0  0  0  0  0  0  0  0  0
    2.1090   -1.0117   -1.1423 H   0  0  0  0  0  0  0  0  0  0  0  0
    2.6758   -0.0436   -2.5249 H   0  0  0  0  0  0  0  0  0  0  0  0
    1.8174    0.7212   -1.1684 H   0  0  0  0  0  0  0  0  0  0  0  0
    3.5651    0.0120    0.3261 H   0  0  0  0  0  0  0  0  0  0  0  0
    5.2867   -0.7569   -2.0330 H   0  0  0  0  0  0  0  0  0  0  0  0
    4.4507   -1.8694   -0.9700 H   0  0  0  0  0  0  0  0  0  0  0  0
    6.8420   -0.1185   -0.3115 H   0  0  0  0  0  0  0  0  0  0  0  0
    6.6428   -1.8434   -0.2126 H   0  0  0  0  0  0  0  0  0  0  0  0
    6.4433   -1.5067    1.9771 H   0  0  0  0  0  0  0  0  0  0  0  0
    4.7626   -1.2011    1.6565 H   0  0  0  0  0  0  0  0  0  0  0  0
    7.0198    0.8652    1.9426 H   0  0  0  0  0  0  0  0  0  0  0  0
    5.8983    0.4169    3.2002 H   0  0  0  0  0  0  0  0  0  0  0  0
    5.4357    2.5820    2.3016 H   0  0  0  0  0  0  0  0  0  0  0  0
    3.6804    1.4609    3.3687 H   0  0  0  0  0  0  0  0  0  0  0  0
    3.1944    0.5558    2.0039 H   0  0  0  0  0  0  0  0  0  0  0  0
    2.5224    2.7656    0.8505 H   0  0  0  0  0  0  0  0  0  0  0  0
    2.9954    3.5852    2.3286 H   0  0  0  0  0  0  0  0  0  0  0  0
    1.2871    2.2487    3.5971 H   0  0  0  0  0  0  0  0  0  0  0  0
    0.8329    1.4098    2.1097 H   0  0  0  0  0  0  0  0  0  0  0  0
    0.2374    3.5912    1.0467 H   0  0  0  0  0  0  0  0  0  0  0  0
    0.6831    4.4390    2.5243 H   0  0  0  0  0  0  0  0  0  0  0  0
   -1.0960    3.2112    3.7703 H   0  0  0  0  0  0  0  0  0  0  0  0
   -1.5449    2.3602    2.2684 H   0  0  0  0  0  0  0  0  0  0  0  0
   -3.4336    2.5070    3.8133 H   0  0  0  0  0  0  0  0  0  0  0  0
   -6.0305    2.9076    4.0883 H   0  0  0  0  0  0  0  0  0  0  0  0
   -7.1606    6.2157    3.2657 H   0  0  0  0  0  0  0  0  0  0  0  0
   -7.8058    4.5789    3.3399 H   0  0  0  0  0  0  0  0  0  0  0  0
   -7.5858    4.3606    0.8579 H   0  0  0  0  0  0  0  0  0  0  0  0
   -6.9456    6.0051    0.7706 H   0  0  0  0  0  0  0  0  0  0  0  0
   -9.0709    6.8871    1.7552 H   0  0  0  0  0  0  0  0  0  0  0  0
   -9.7138    5.2445    1.8376 H   0  0  0  0  0  0  0  0  0  0  0  0
   -9.4777    5.0272   -0.6496 H   0  0  0  0  0  0  0  0  0  0  0  0
   -8.8344    6.6682   -0.7324 H   0  0  0  0  0  0  0  0  0  0  0  0
  -11.6288    5.9074    0.2679 H   0  0  0  0  0  0  0  0  0  0  0  0
  -11.2384    6.6369   -1.2996 H   0  0  0  0  0  0  0  0  0  0  0  0
  -10.9836    7.5594    0.1924 H   0  0  0  0  0  0  0  0  0  0  0  0
   -4.3316    6.3236    2.7103 H   0  0  0  0  0  0  0  0  0  0  0  0
   -4.5946    5.3910    1.1985 H   0  0  0  0  0  0  0  0  0  0  0  0
    6.3068    1.9914   -0.0223 H   0  0  0  0  0  0  0  0  0  0  0  0
    5.1635    3.2591    0.2058 H   0  0  0  0  0  0  0  0  0  0  0  0
    4.9193    1.6832   -1.8207 H   0  0  0  0  0  0  0  0  0  0  0  0
    3.5193    2.2861   -1.0001 H   0  0  0  0  0  0  0  0  0  0  0  0
  1  2  1  0  0  0  0
  1 27  1  0  0  0  0
  1 28  1  0  0  0  0
  1 29  1  0  0  0  0
  2  3  1  0  0  0  0
  2 26  1  0  0  0  0
  2 30  1  0  0  0  0
  3  4  1  0  0  0  0
  3 31  1  0  0  0  0
  3 32  1  0  0  0  0
  4  5  1  0  0  0  0
  4 33  1  0  0  0  0
  4 34  1  0  0  0  0
  5  6  1  0  0  0  0
  5 35  1  0  0  0  0
  5 36  1  0  0  0  0
  6  7  1  0  0  0  0
  6 37  1  0  0  0  0
  6 38  1  0  0  0  0
  7  8  1  0  0  0  0
  7 25  1  0  0  0  0
  7 39  1  0  0  0  0
  8  9  1  0  0  0  0
  8 40  1  0  0  0  0
  8 41  1  0  0  0  0
  9 10  1  0  0  0  0
  9 42  1  0  0  0  0
  9 43  1  0  0  0  0
 10 11  1  0  0  0  0
 10 44  1  0  0  0  0
 10 45  1  0  0  0  0
 11 12  1  0  0  0  0
 11 46  1  0  0  0  0
 11 47  1  0  0  0  0
 12 13  1  0  0  0  0
 12 48  1  0  0  0  0
 12 49  1  0  0  0  0
 13 14  2  0  0  0  0
 13 15  1  0  0  0  0
 15 16  2  0  0  0  0
 15 24  1  0  0  0  0
 16 17  1  0  0  0  0
 16 50  1  0  0  0  0
 17 18  2  0  0  0  0
 17 51  1  0  0  0  0
 18 19  1  0  0  0  0
 18 24  1  0  0  0  0
 19 20  1  0  0  0  0
 19 52  1  0  0  0  0
 19 53  1  0  0  0  0
 20 21  1  0  0  0  0
 20 54  1  0  0  0  0
 20 55  1  0  0  0  0
 21 22  1  0  0  0  0
 21 56  1  0  0  0  0
 21 57  1  0  0  0  0
 22 23  1  0  0  0  0
 22 58  1  0  0  0  0
 22 59  1  0  0  0  0
 23 60  1  0  0  0  0
 23 61  1  0  0  0  0
 23 62  1  0  0  0  0
 24 63  1  0  0  0  0
 24 64  1  0  0  0  0
 25 26  1  0  0  0  0
 25 65  1  0  0  0  0
 25 66  1  0  0  0  0
 26 67  1  0  0  0  0
 26 68  1  0  0  0  0
M  END
$$$$
