
 OpenBabel04232216543D

225224  0  0  0  0  0  0  0  0999 V2000
    8.7296   -5.5451   -0.1357 C   0  0  0  0  0  0  0  0  0  0  0  0
    8.2425   -4.1098   -0.1009 C   0  0  0  0  0  0  0  0  0  0  0  0
    8.7446   -3.4105    1.1570 C   0  0  0  0  0  0  0  0  0  0  0  0
    8.2584   -1.9673    1.2005 C   0  0  0  0  0  0  0  0  0  0  0  0
    8.7556   -1.3382    2.4110 N   0  0  0  0  0  0  0  0  0  0  0  0
    8.2766   -0.0041    2.4142 N   0  0  0  0  0  0  0  0  0  0  0  0
    8.7424    0.6454    3.5826 N   0  0  0  0  0  0  0  0  0  0  0  0
    8.2992    1.9982    3.6380 N   0  0  0  0  0  0  0  0  0  0  0  0
    8.7784    2.6373    4.8110 N   0  0  0  0  0  0  0  0  0  0  0  0
   10.1887    2.6242    4.8077 N   0  0  0  0  0  0  0  0  0  0  0  0
   10.6834    3.2646    5.9857 N   0  0  0  0  0  0  0  0  0  0  0  0
   12.1087    3.2652    6.0094 N   0  0  0  0  0  0  0  0  0  0  0  0
   12.5744    3.8998    7.1793 N   0  0  0  0  0  0  0  0  0  0  0  0
   13.9937    3.8968    7.1889 N   0  0  0  0  0  0  0  0  0  0  0  0
   14.4774    4.5296    8.3559 N   0  0  0  0  0  0  0  0  0  0  0  0
   15.8899    4.5220    8.3633 N   0  0  0  0  0  0  0  0  0  0  0  0
   16.3660    5.1554    9.5284 N   0  0  0  0  0  0  0  0  0  0  0  0
   17.7750    5.1487    9.5380 N   0  0  0  0  0  0  0  0  0  0  0  0
   18.2411    5.7846   10.7041 N   0  0  0  0  0  0  0  0  0  0  0  0
   19.6486    5.7802   10.7147 N   0  0  0  0  0  0  0  0  0  0  0  0
   20.1207    6.4264   11.8928 N   0  0  0  0  0  0  0  0  0  0  0  0
   21.5823    6.4111   11.8822 C   0  0  0  0  0  0  0  0  0  0  0  0
   22.1038    7.0982   13.1417 C   0  0  0  0  0  0  0  0  0  0  0  0
   23.6264    7.0952   13.1571 C   0  0  0  0  0  0  0  0  0  0  0  0
   24.1417    7.7799   14.4115 C   0  0  0  0  0  0  0  0  0  0  0  0
   25.6595    7.7762   14.4215 C   0  0  0  0  0  0  0  0  0  0  0  0
   26.1711    8.4604   15.6751 C   0  0  0  0  0  0  0  0  0  0  0  0
   27.6877    8.4562   15.6841 C   0  0  0  0  0  0  0  0  0  0  0  0
   28.1984    9.1402   16.9373 C   0  0  0  0  0  0  0  0  0  0  0  0
   29.7146    9.1358   16.9460 C   0  0  0  0  0  0  0  0  0  0  0  0
   30.2252    9.8198   18.1991 C   0  0  0  0  0  0  0  0  0  0  0  0
   31.7413    9.8153   18.2078 C   0  0  0  0  0  0  0  0  0  0  0  0
   32.2518   10.4993   19.4609 C   0  0  0  0  0  0  0  0  0  0  0  0
   33.7680   10.4966   19.4685 C   0  0  0  0  0  0  0  0  0  0  0  0
   34.2785   11.1806   20.7217 C   0  0  0  0  0  0  0  0  0  0  0  0
   35.7946   11.1797   20.7283 C   0  0  0  0  0  0  0  0  0  0  0  0
   36.3051   11.8619   21.9824 C   0  0  0  0  0  0  0  0  0  0  0  0
   37.8213   11.8627   21.9881 C   0  0  0  0  0  0  0  0  0  0  0  0
   38.3318   12.5432   23.2432 C   0  0  0  0  0  0  0  0  0  0  0  0
   39.8480   12.5458   23.2479 C   0  0  0  0  0  0  0  0  0  0  0  0
   40.3585   13.2281   24.5020 C   0  0  0  0  0  0  0  0  0  0  0  0
   41.8746   13.2307   24.5068 C   0  0  0  0  0  0  0  0  0  0  0  0
   42.3851   13.9129   25.7609 C   0  0  0  0  0  0  0  0  0  0  0  0
   43.9013   13.9155   25.7656 C   0  0  0  0  0  0  0  0  0  0  0  0
   44.4118   14.5977   27.0197 C   0  0  0  0  0  0  0  0  0  0  0  0
   45.9280   14.6003   27.0245 C   0  0  0  0  0  0  0  0  0  0  0  0
   46.4384   15.2826   28.2786 C   0  0  0  0  0  0  0  0  0  0  0  0
   47.9546   15.2852   28.2833 C   0  0  0  0  0  0  0  0  0  0  0  0
   48.4651   15.9674   29.5374 C   0  0  0  0  0  0  0  0  0  0  0  0
   49.9813   15.9683   29.5431 C   0  0  0  0  0  0  0  0  0  0  0  0
   50.4918   16.6505   30.7972 C   0  0  0  0  0  0  0  0  0  0  0  0
   52.0079   16.6531   30.8020 C   0  0  0  0  0  0  0  0  0  0  0  0
   52.5184   17.3336   32.0570 C   0  0  0  0  0  0  0  0  0  0  0  0
   54.0346   17.3344   32.0627 C   0  0  0  0  0  0  0  0  0  0  0  0
   54.5451   18.0166   33.3168 C   0  0  0  0  0  0  0  0  0  0  0  0
   56.0613   18.0192   33.3216 C   0  0  0  0  0  0  0  0  0  0  0  0
   56.5717   18.7032   34.5747 C   0  0  0  0  0  0  0  0  0  0  0  0
   58.0879   18.7041   34.5804 C   0  0  0  0  0  0  0  0  0  0  0  0
   58.5984   19.3881   35.8336 C   0  0  0  0  0  0  0  0  0  0  0  0
   60.1146   19.3871   35.8402 C   0  0  0  0  0  0  0  0  0  0  0  0
   60.6251   20.0711   37.0934 C   0  0  0  0  0  0  0  0  0  0  0  0
   62.1412   20.0702   37.1001 C   0  0  0  0  0  0  0  0  0  0  0  0
   62.6517   20.7542   38.3532 C   0  0  0  0  0  0  0  0  0  0  0  0
   64.1679   20.7533   38.3599 C   0  0  0  0  0  0  0  0  0  0  0  0
   64.6784   21.4373   39.6130 C   0  0  0  0  0  0  0  0  0  0  0  0
   66.1946   21.4363   39.6197 C   0  0  0  0  0  0  0  0  0  0  0  0
   66.7050   22.1204   40.8728 C   0  0  0  0  0  0  0  0  0  0  0  0
   68.2212   22.1194   40.8795 C   0  0  0  0  0  0  0  0  0  0  0  0
   68.7317   22.8034   42.1326 C   0  0  0  0  0  0  0  0  0  0  0  0
   70.2479   22.8007   42.1403 C   0  0  0  0  0  0  0  0  0  0  0  0
   70.7585   23.4847   43.3935 C   0  0  0  0  0  0  0  0  0  0  0  0
   72.2748   23.4821   43.4013 C   0  0  0  0  0  0  0  0  0  0  0  0
   72.7858   24.1662   44.6545 C   0  0  0  0  0  0  0  0  0  0  0  0
   74.3027   24.1639   44.6629 C   0  0  0  0  0  0  0  0  0  0  0  0
   74.8149   24.8483   45.9168 C   0  0  0  0  0  0  0  0  0  0  0  0
   76.3335   24.8456   45.9287 C   0  0  0  0  0  0  0  0  0  0  0  0
   76.8508   25.5311   47.1850 C   0  0  0  0  0  0  0  0  0  0  0  0
   78.3742   25.5292   47.1978 C   0  0  0  0  0  0  0  0  0  0  0  0
   78.8432   26.1903   48.4124 N   0  0  0  0  0  0  0  0  0  0  0  0
   80.2686   26.1798   48.4058 N   0  0  0  0  0  0  0  0  0  0  0  0
   80.7642   26.8157   49.5749 N   0  0  0  0  0  0  0  0  0  0  0  0
    8.3706   -6.0469   -1.0380 H   0  0  0  0  0  0  0  0  0  0  0  0
    8.3636   -6.0963    0.7364 H   0  0  0  0  0  0  0  0  0  0  0  0
    9.8237   -5.5797   -0.1317 H   0  0  0  0  0  0  0  0  0  0  0  0
    7.1467   -4.0950   -0.1256 H   0  0  0  0  0  0  0  0  0  0  0  0
    8.6014   -3.5803   -0.9911 H   0  0  0  0  0  0  0  0  0  0  0  0
    9.8412   -3.4362    1.1756 H   0  0  0  0  0  0  0  0  0  0  0  0
    8.3875   -3.9523    2.0424 H   0  0  0  0  0  0  0  0  0  0  0  0
    7.1598   -1.9649    1.1857 H   0  0  0  0  0  0  0  0  0  0  0  0
    8.6105   -1.4383    0.3054 H   0  0  0  0  0  0  0  0  0  0  0  0
    9.7746   -1.3256    2.4039 H   0  0  0  0  0  0  0  0  0  0  0  0
    7.2546   -0.0321    2.3853 H   0  0  0  0  0  0  0  0  0  0  0  0
    9.7703    0.6639    3.6039 H   0  0  0  0  0  0  0  0  0  0  0  0
    7.2846    2.0350    3.6644 H   0  0  0  0  0  0  0  0  0  0  0  0
    8.4521    2.1411    5.6361 H   0  0  0  0  0  0  0  0  0  0  0  0
   10.5034    3.1054    3.9637 H   0  0  0  0  0  0  0  0  0  0  0  0
   10.3258    2.7701    6.8141 H   0  0  0  0  0  0  0  0  0  0  0  0
   12.4935    3.7690    5.2068 H   0  0  0  0  0  0  0  0  0  0  0  0
   12.2525    3.4123    8.0140 H   0  0  0  0  0  0  0  0  0  0  0  0
   14.3283    4.4088    6.3763 H   0  0  0  0  0  0  0  0  0  0  0  0
   14.1498    4.0223    9.1731 H   0  0  0  0  0  0  0  0  0  0  0  0
   16.2233    5.0275    7.5452 H   0  0  0  0  0  0  0  0  0  0  0  0
   16.0296    4.6579   10.3500 H   0  0  0  0  0  0  0  0  0  0  0  0
   18.1298    5.6616    8.7354 H   0  0  0  0  0  0  0  0  0  0  0  0
   17.8831    5.2783   11.5093 H   0  0  0  0  0  0  0  0  0  0  0  0
   19.9774    6.2838    9.8926 H   0  0  0  0  0  0  0  0  0  0  0  0
   19.7843    5.9125   12.7066 H   0  0  0  0  0  0  0  0  0  0  0  0
   21.9676    6.9461   11.0050 H   0  0  0  0  0  0  0  0  0  0  0  0
   21.9654    5.3828   11.8512 H   0  0  0  0  0  0  0  0  0  0  0  0
   21.7320    6.5830   14.0364 H   0  0  0  0  0  0  0  0  0  0  0  0
   21.7432    8.1339   13.1840 H   0  0  0  0  0  0  0  0  0  0  0  0
   24.0106    7.6145   12.2706 H   0  0  0  0  0  0  0  0  0  0  0  0
   23.9985    6.0640   13.1219 H   0  0  0  0  0  0  0  0  0  0  0  0
   23.7647    7.2613   15.3013 H   0  0  0  0  0  0  0  0  0  0  0  0
   23.7741    8.8125   14.4508 H   0  0  0  0  0  0  0  0  0  0  0  0
   26.0397    8.2959   13.5335 H   0  0  0  0  0  0  0  0  0  0  0  0
   26.0303    6.7446   14.3842 H   0  0  0  0  0  0  0  0  0  0  0  0
   25.7925    7.9413   16.5640 H   0  0  0  0  0  0  0  0  0  0  0  0
   25.8020    9.4926   15.7134 H   0  0  0  0  0  0  0  0  0  0  0  0
   28.0670    8.9756   14.7956 H   0  0  0  0  0  0  0  0  0  0  0  0
   28.0576    7.4243   15.6463 H   0  0  0  0  0  0  0  0  0  0  0  0
   27.8194    8.6209   17.8260 H   0  0  0  0  0  0  0  0  0  0  0  0
   27.8288   10.1723   16.9753 H   0  0  0  0  0  0  0  0  0  0  0  0
   30.0938    9.6551   16.0574 H   0  0  0  0  0  0  0  0  0  0  0  0
   30.0843    8.1038   16.9080 H   0  0  0  0  0  0  0  0  0  0  0  0
   29.8461    9.3005   19.0878 H   0  0  0  0  0  0  0  0  0  0  0  0
   29.8555   10.8518   18.2371 H   0  0  0  0  0  0  0  0  0  0  0  0
   32.1204   10.3347   17.3191 H   0  0  0  0  0  0  0  0  0  0  0  0
   32.1110    8.7833   18.1698 H   0  0  0  0  0  0  0  0  0  0  0  0
   31.8739    9.9791   20.3495 H   0  0  0  0  0  0  0  0  0  0  0  0
   31.8810   11.5309   19.4996 H   0  0  0  0  0  0  0  0  0  0  0  0
   34.1459   11.0168   18.5799 H   0  0  0  0  0  0  0  0  0  0  0  0
   34.1388    9.4651   19.4298 H   0  0  0  0  0  0  0  0  0  0  0  0
   33.9017   10.6595   21.6102 H   0  0  0  0  0  0  0  0  0  0  0  0
   33.9065   12.2117   20.7611 H   0  0  0  0  0  0  0  0  0  0  0  0
   36.1714   11.7020   19.8405 H   0  0  0  0  0  0  0  0  0  0  0  0
   36.1667   10.1487   20.6875 H   0  0  0  0  0  0  0  0  0  0  0  0
   35.9296   11.3387   22.8703 H   0  0  0  0  0  0  0  0  0  0  0  0
   35.9319   12.8925   22.0240 H   0  0  0  0  0  0  0  0  0  0  0  0
   38.1968   12.3872   21.1010 H   0  0  0  0  0  0  0  0  0  0  0  0
   38.1945   10.8322   21.9451 H   0  0  0  0  0  0  0  0  0  0  0  0
   37.9574   12.0179   24.1303 H   0  0  0  0  0  0  0  0  0  0  0  0
   37.9574   13.5733   23.2870 H   0  0  0  0  0  0  0  0  0  0  0  0
   40.2224   13.0699   22.3601 H   0  0  0  0  0  0  0  0  0  0  0  0
   40.2223   11.5157   23.2056 H   0  0  0  0  0  0  0  0  0  0  0  0
   39.9841   12.7040   25.3899 H   0  0  0  0  0  0  0  0  0  0  0  0
   39.9841   14.2582   24.5444 H   0  0  0  0  0  0  0  0  0  0  0  0
   42.2490   13.7547   23.6189 H   0  0  0  0  0  0  0  0  0  0  0  0
   42.2490   12.2005   24.4645 H   0  0  0  0  0  0  0  0  0  0  0  0
   42.0107   13.3888   26.6487 H   0  0  0  0  0  0  0  0  0  0  0  0
   42.0107   14.9430   25.8032 H   0  0  0  0  0  0  0  0  0  0  0  0
   44.2757   14.4396   24.8778 H   0  0  0  0  0  0  0  0  0  0  0  0
   44.2757   12.8854   25.7233 H   0  0  0  0  0  0  0  0  0  0  0  0
   44.0374   14.0737   27.9076 H   0  0  0  0  0  0  0  0  0  0  0  0
   44.0374   15.6279   27.0621 H   0  0  0  0  0  0  0  0  0  0  0  0
   46.3023   15.1244   26.1366 H   0  0  0  0  0  0  0  0  0  0  0  0
   46.3023   13.5702   26.9821 H   0  0  0  0  0  0  0  0  0  0  0  0
   46.0641   14.7585   29.1664 H   0  0  0  0  0  0  0  0  0  0  0  0
   46.0641   16.3127   28.3209 H   0  0  0  0  0  0  0  0  0  0  0  0
   48.3290   15.8092   27.3955 H   0  0  0  0  0  0  0  0  0  0  0  0
   48.3290   14.2551   28.2410 H   0  0  0  0  0  0  0  0  0  0  0  0
   48.0896   15.4442   30.4253 H   0  0  0  0  0  0  0  0  0  0  0  0
   48.0919   16.9980   29.5790 H   0  0  0  0  0  0  0  0  0  0  0  0
   50.3568   16.4915   28.6553 H   0  0  0  0  0  0  0  0  0  0  0  0
   50.3545   14.9377   29.5015 H   0  0  0  0  0  0  0  0  0  0  0  0
   50.1173   16.1264   31.6851 H   0  0  0  0  0  0  0  0  0  0  0  0
   50.1174   17.6806   30.8396 H   0  0  0  0  0  0  0  0  0  0  0  0
   52.3823   17.1784   29.9149 H   0  0  0  0  0  0  0  0  0  0  0  0
   52.3823   15.6230   30.7582 H   0  0  0  0  0  0  0  0  0  0  0  0
   52.1429   16.8091   32.9442 H   0  0  0  0  0  0  0  0  0  0  0  0
   52.1452   18.3641   32.1001 H   0  0  0  0  0  0  0  0  0  0  0  0
   54.4101   17.8576   31.1749 H   0  0  0  0  0  0  0  0  0  0  0  0
   54.4078   16.3038   32.0211 H   0  0  0  0  0  0  0  0  0  0  0  0
   54.1707   17.4926   34.2047 H   0  0  0  0  0  0  0  0  0  0  0  0
   54.1707   19.0467   33.3592 H   0  0  0  0  0  0  0  0  0  0  0  0
   56.4357   18.5420   32.4330 H   0  0  0  0  0  0  0  0  0  0  0  0
   56.4356   16.9890   33.2807 H   0  0  0  0  0  0  0  0  0  0  0  0
   56.1962   18.1813   35.4633 H   0  0  0  0  0  0  0  0  0  0  0  0
   56.1985   19.7339   34.6149 H   0  0  0  0  0  0  0  0  0  0  0  0
   58.4635   19.2260   33.6918 H   0  0  0  0  0  0  0  0  0  0  0  0
   58.4611   17.6734   34.5403 H   0  0  0  0  0  0  0  0  0  0  0  0
   58.2217   18.8670   36.7222 H   0  0  0  0  0  0  0  0  0  0  0  0
   58.2264   20.4191   35.8730 H   0  0  0  0  0  0  0  0  0  0  0  0
   60.4913   19.9082   34.9516 H   0  0  0  0  0  0  0  0  0  0  0  0
   60.4866   18.3560   35.8008 H   0  0  0  0  0  0  0  0  0  0  0  0
   60.2483   19.5500   37.9820 H   0  0  0  0  0  0  0  0  0  0  0  0
   60.2530   21.1022   37.1328 H   0  0  0  0  0  0  0  0  0  0  0  0
   62.5180   20.5913   36.2114 H   0  0  0  0  0  0  0  0  0  0  0  0
   62.5133   19.0391   37.0606 H   0  0  0  0  0  0  0  0  0  0  0  0
   62.2750   20.2331   39.2418 H   0  0  0  0  0  0  0  0  0  0  0  0
   62.2797   21.7853   38.3926 H   0  0  0  0  0  0  0  0  0  0  0  0
   64.5446   21.2743   37.4713 H   0  0  0  0  0  0  0  0  0  0  0  0
   64.5399   19.7222   38.3204 H   0  0  0  0  0  0  0  0  0  0  0  0
   64.3016   20.9162   40.5016 H   0  0  0  0  0  0  0  0  0  0  0  0
   64.3064   22.4684   39.6524 H   0  0  0  0  0  0  0  0  0  0  0  0
   66.5713   21.9574   38.7311 H   0  0  0  0  0  0  0  0  0  0  0  0
   66.5666   20.4052   39.5802 H   0  0  0  0  0  0  0  0  0  0  0  0
   66.3283   21.5993   41.7614 H   0  0  0  0  0  0  0  0  0  0  0  0
   66.3330   23.1514   40.9122 H   0  0  0  0  0  0  0  0  0  0  0  0
   68.5980   22.6405   39.9909 H   0  0  0  0  0  0  0  0  0  0  0  0
   68.5932   21.0883   40.8401 H   0  0  0  0  0  0  0  0  0  0  0  0
   68.3538   22.2832   43.0212 H   0  0  0  0  0  0  0  0  0  0  0  0
   68.3608   23.8349   42.1713 H   0  0  0  0  0  0  0  0  0  0  0  0
   70.6258   23.3209   41.2517 H   0  0  0  0  0  0  0  0  0  0  0  0
   70.6187   21.7692   42.1016 H   0  0  0  0  0  0  0  0  0  0  0  0
   70.3805   22.9645   44.2820 H   0  0  0  0  0  0  0  0  0  0  0  0
   70.3876   24.5163   43.4321 H   0  0  0  0  0  0  0  0  0  0  0  0
   72.6525   24.0023   42.5125 H   0  0  0  0  0  0  0  0  0  0  0  0
   72.6454   22.4505   43.3624 H   0  0  0  0  0  0  0  0  0  0  0  0
   72.4074   23.6459   45.5429 H   0  0  0  0  0  0  0  0  0  0  0  0
   72.4145   25.1976   44.6930 H   0  0  0  0  0  0  0  0  0  0  0  0
   74.6797   24.6837   43.7737 H   0  0  0  0  0  0  0  0  0  0  0  0
   74.6726   23.1320   44.6236 H   0  0  0  0  0  0  0  0  0  0  0  0
   74.4341   24.3284   46.8043 H   0  0  0  0  0  0  0  0  0  0  0  0
   74.4434   25.8796   45.9537 H   0  0  0  0  0  0  0  0  0  0  0  0
   76.7097   25.3634   45.0379 H   0  0  0  0  0  0  0  0  0  0  0  0
   76.7003   23.8127   45.8888 H   0  0  0  0  0  0  0  0  0  0  0  0
   76.4639   25.0093   48.0693 H   0  0  0  0  0  0  0  0  0  0  0  0
   76.4742   26.5614   47.2184 H   0  0  0  0  0  0  0  0  0  0  0  0
   78.7371   26.0589   46.3079 H   0  0  0  0  0  0  0  0  0  0  0  0
   78.7355   24.4939   47.1507 H   0  0  0  0  0  0  0  0  0  0  0  0
   78.5121   25.6759   49.2282 H   0  0  0  0  0  0  0  0  0  0  0  0
   80.6059   26.6894   47.5895 H   0  0  0  0  0  0  0  0  0  0  0  0
   80.3984   26.3320   50.3936 H   0  0  0  0  0  0  0  0  0  0  0  0
   80.3928   27.7639   49.6168 H   0  0  0  0  0  0  0  0  0  0  0  0
  1  2  1  0  0  0  0
  1 82  1  0  0  0  0
  1 83  1  0  0  0  0
  1 84  1  0  0  0  0
  2  3  1  0  0  0  0
  2 85  1  0  0  0  0
  2 86  1  0  0  0  0
  3  4  1  0  0  0  0
  3 87  1  0  0  0  0
  3 88  1  0  0  0  0
  4  5  1  0  0  0  0
  4 89  1  0  0  0  0
  4 90  1  0  0  0  0
  5  6  1  0  0  0  0
  5 91  1  0  0  0  0
  6  7  1  0  0  0  0
  6 92  1  0  0  0  0
  7  8  1  0  0  0  0
  7 93  1  0  0  0  0
  8  9  1  0  0  0  0
  8 94  1  0  0  0  0
  9 10  1  0  0  0  0
  9 95  1  0  0  0  0
 10 11  1  0  0  0  0
 10 96  1  0  0  0  0
 11 12  1  0  0  0  0
 11 97  1  0  0  0  0
 12 13  1  0  0  0  0
 12 98  1  0  0  0  0
 13 14  1  0  0  0  0
 13 99  1  0  0  0  0
 14 15  1  0  0  0  0
 14100  1  0  0  0  0
 15 16  1  0  0  0  0
 15101  1  0  0  0  0
 16 17  1  0  0  0  0
 16102  1  0  0  0  0
 17 18  1  0  0  0  0
 17103  1  0  0  0  0
 18 19  1  0  0  0  0
 18104  1  0  0  0  0
 19 20  1  0  0  0  0
 19105  1  0  0  0  0
 20 21  1  0  0  0  0
 20106  1  0  0  0  0
 21 22  1  0  0  0  0
 21107  1  0  0  0  0
 22 23  1  0  0  0  0
 22108  1  0  0  0  0
 22109  1  0  0  0  0
 23 24  1  0  0  0  0
 23110  1  0  0  0  0
 23111  1  0  0  0  0
 24 25  1  0  0  0  0
 24112  1  0  0  0  0
 24113  1  0  0  0  0
 25 26  1  0  0  0  0
 25114  1  0  0  0  0
 25115  1  0  0  0  0
 26 27  1  0  0  0  0
 26116  1  0  0  0  0
 26117  1  0  0  0  0
 27 28  1  0  0  0  0
 27118  1  0  0  0  0
 27119  1  0  0  0  0
 28 29  1  0  0  0  0
 28120  1  0  0  0  0
 28121  1  0  0  0  0
 29 30  1  0  0  0  0
 29122  1  0  0  0  0
 29123  1  0  0  0  0
 30 31  1  0  0  0  0
 30124  1  0  0  0  0
 30125  1  0  0  0  0
 31 32  1  0  0  0  0
 31126  1  0  0  0  0
 31127  1  0  0  0  0
 32 33  1  0  0  0  0
 32128  1  0  0  0  0
 32129  1  0  0  0  0
 33 34  1  0  0  0  0
 33130  1  0  0  0  0
 33131  1  0  0  0  0
 34 35  1  0  0  0  0
 34132  1  0  0  0  0
 34133  1  0  0  0  0
 35 36  1  0  0  0  0
 35134  1  0  0  0  0
 35135  1  0  0  0  0
 36 37  1  0  0  0  0
 36136  1  0  0  0  0
 36137  1  0  0  0  0
 37 38  1  0  0  0  0
 37138  1  0  0  0  0
 37139  1  0  0  0  0
 38 39  1  0  0  0  0
 38140  1  0  0  0  0
 38141  1  0  0  0  0
 39 40  1  0  0  0  0
 39142  1  0  0  0  0
 39143  1  0  0  0  0
 40 41  1  0  0  0  0
 40144  1  0  0  0  0
 40145  1  0  0  0  0
 41 42  1  0  0  0  0
 41146  1  0  0  0  0
 41147  1  0  0  0  0
 42 43  1  0  0  0  0
 42148  1  0  0  0  0
 42149  1  0  0  0  0
 43 44  1  0  0  0  0
 43150  1  0  0  0  0
 43151  1  0  0  0  0
 44 45  1  0  0  0  0
 44152  1  0  0  0  0
 44153  1  0  0  0  0
 45 46  1  0  0  0  0
 45154  1  0  0  0  0
 45155  1  0  0  0  0
 46 47  1  0  0  0  0
 46156  1  0  0  0  0
 46157  1  0  0  0  0
 47 48  1  0  0  0  0
 47158  1  0  0  0  0
 47159  1  0  0  0  0
 48 49  1  0  0  0  0
 48160  1  0  0  0  0
 48161  1  0  0  0  0
 49 50  1  0  0  0  0
 49162  1  0  0  0  0
 49163  1  0  0  0  0
 50 51  1  0  0  0  0
 50164  1  0  0  0  0
 50165  1  0  0  0  0
 51 52  1  0  0  0  0
 51166  1  0  0  0  0
 51167  1  0  0  0  0
 52 53  1  0  0  0  0
 52168  1  0  0  0  0
 52169  1  0  0  0  0
 53 54  1  0  0  0  0
 53170  1  0  0  0  0
 53171  1  0  0  0  0
 54 55  1  0  0  0  0
 54172  1  0  0  0  0
 54173  1  0  0  0  0
 55 56  1  0  0  0  0
 55174  1  0  0  0  0
 55175  1  0  0  0  0
 56 57  1  0  0  0  0
 56176  1  0  0  0  0
 56177  1  0  0  0  0
 57 58  1  0  0  0  0
 57178  1  0  0  0  0
 57179  1  0  0  0  0
 58 59  1  0  0  0  0
 58180  1  0  0  0  0
 58181  1  0  0  0  0
 59 60  1  0  0  0  0
 59182  1  0  0  0  0
 59183  1  0  0  0  0
 60 61  1  0  0  0  0
 60184  1  0  0  0  0
 60185  1  0  0  0  0
 61 62  1  0  0  0  0
 61186  1  0  0  0  0
 61187  1  0  0  0  0
 62 63  1  0  0  0  0
 62188  1  0  0  0  0
 62189  1  0  0  0  0
 63 64  1  0  0  0  0
 63190  1  0  0  0  0
 63191  1  0  0  0  0
 64 65  1  0  0  0  0
 64192  1  0  0  0  0
 64193  1  0  0  0  0
 65 66  1  0  0  0  0
 65194  1  0  0  0  0
 65195  1  0  0  0  0
 66 67  1  0  0  0  0
 66196  1  0  0  0  0
 66197  1  0  0  0  0
 67 68  1  0  0  0  0
 67198  1  0  0  0  0
 67199  1  0  0  0  0
 68 69  1  0  0  0  0
 68200  1  0  0  0  0
 68201  1  0  0  0  0
 69 70  1  0  0  0  0
 69202  1  0  0  0  0
 69203  1  0  0  0  0
 70 71  1  0  0  0  0
 70204  1  0  0  0  0
 70205  1  0  0  0  0
 71 72  1  0  0  0  0
 71206  1  0  0  0  0
 71207  1  0  0  0  0
 72 73  1  0  0  0  0
 72208  1  0  0  0  0
 72209  1  0  0  0  0
 73 74  1  0  0  0  0
 73210  1  0  0  0  0
 73211  1  0  0  0  0
 74 75  1  0  0  0  0
 74212  1  0  0  0  0
 74213  1  0  0  0  0
 75 76  1  0  0  0  0
 75214  1  0  0  0  0
 75215  1  0  0  0  0
 76 77  1  0  0  0  0
 76216  1  0  0  0  0
 76217  1  0  0  0  0
 77 78  1  0  0  0  0
 77218  1  0  0  0  0
 77219  1  0  0  0  0
 78 79  1  0  0  0  0
 78220  1  0  0  0  0
 78221  1  0  0  0  0
 79 80  1  0  0  0  0
 79222  1  0  0  0  0
 80 81  1  0  0  0  0
 80223  1  0  0  0  0
 81224  1  0  0  0  0
 81225  1  0  0  0  0
M  END
$$$$
