
 OpenBabel04232216553D

 39 40  0  0  0  0  0  0  0  0999 V2000
    1.7571   -0.9319   -2.1583 C   0  0  0  0  0  0  0  0  0  0  0  0
    3.0990   -0.4048   -2.5214 N   0  0  0  0  0  0  0  0  0  0  0  0
    3.6429    1.0459   -1.6071 C   0  0  0  0  0  0  0  0  0  0  0  0
    2.7538    1.9115   -1.5579 O   0  0  0  0  0  0  0  0  0  0  0  0
    5.0860    1.2520   -0.2928 C   0  0  0  0  0  0  0  0  0  0  0  0
    5.5237    2.1277    1.2146 C   0  0  0  0  0  0  0  0  0  0  0  0
    6.8883    1.7458    1.9380 C   0  0  0  0  0  0  0  0  0  0  0  0
    8.1259    1.8284    1.4531 F   0  0  0  0  0  0  0  0  0  0  0  0
    5.4481    0.0142    0.1424 C   0  0  0  0  0  0  0  0  0  0  0  0
    4.6881   -0.8996   -0.8051 C   0  0  0  0  0  0  0  0  0  0  0  0
    5.5636   -1.7391   -1.4594 C   0  0  0  0  0  0  0  0  0  0  0  0
    7.0668   -1.4601   -1.5784 C   0  0  0  0  0  0  0  0  0  0  0  0
    5.1819   -3.0352   -2.0410 C   0  0  0  0  0  0  0  0  0  0  0  0
    5.9458   -3.6782   -2.9511 C   0  0  0  0  0  0  0  0  0  0  0  0
    5.6169   -4.9064   -3.6236 C   0  0  0  0  0  0  0  0  0  0  0  0
    6.3974   -5.3645   -4.6267 C   0  0  0  0  0  0  0  0  0  0  0  0
    5.7004   -6.2625   -5.5634 C   0  0  0  0  0  0  0  0  0  0  0  0
    5.8005   -5.9629   -6.8132 N   0  0  0  0  0  0  0  0  0  0  0  0
    4.5664   -6.1123   -7.3961 N   0  0  0  0  0  0  0  0  0  0  0  0
    3.7114   -5.2194   -7.1287 N   0  0  0  0  0  0  0  0  0  0  0  0
    4.1348   -3.9951   -6.3466 N   0  0  0  0  0  0  0  0  0  0  0  0
    3.2473   -3.6980   -5.4013 C   0  0  0  0  0  0  0  0  0  0  0  0
    3.0594   -2.4783   -4.2653 C   0  0  0  0  0  0  0  0  0  0  0  0
    3.7225   -1.3111   -3.8194 N   0  0  0  0  0  0  0  0  0  0  0  0
    1.3489   -0.5088   -1.2317 H   0  0  0  0  0  0  0  0  0  0  0  0
    1.8309   -2.0284   -1.9543 H   0  0  0  0  0  0  0  0  0  0  0  0
    1.0559   -0.8193   -2.9966 H   0  0  0  0  0  0  0  0  0  0  0  0
    4.8611    2.8992    1.5191 H   0  0  0  0  0  0  0  0  0  0  0  0
    3.7274   -1.2937   -0.4793 H   0  0  0  0  0  0  0  0  0  0  0  0
    7.4499   -0.6850   -0.9144 H   0  0  0  0  0  0  0  0  0  0  0  0
    7.3219   -1.1597   -2.6001 H   0  0  0  0  0  0  0  0  0  0  0  0
    7.6385   -2.3619   -1.3172 H   0  0  0  0  0  0  0  0  0  0  0  0
    4.2140   -3.4318   -1.7571 H   0  0  0  0  0  0  0  0  0  0  0  0
    6.8599   -3.2140   -3.3151 H   0  0  0  0  0  0  0  0  0  0  0  0
    4.6490   -5.3473   -3.4146 H   0  0  0  0  0  0  0  0  0  0  0  0
    7.2734   -4.8558   -4.9897 H   0  0  0  0  0  0  0  0  0  0  0  0
    4.8669   -6.8653   -5.1545 H   0  0  0  0  0  0  0  0  0  0  0  0
    2.4435   -4.4621   -5.3158 H   0  0  0  0  0  0  0  0  0  0  0  0
    2.1387   -2.7551   -3.7348 H   0  0  0  0  0  0  0  0  0  0  0  0
  1  2  1  0  0  0  0
  1 25  1  0  0  0  0
  1 26  1  0  0  0  0
  1 27  1  0  0  0  0
  2  3  1  0  0  0  0
  2 24  1  0  0  0  0
  3  4  2  0  0  0  0
  3  5  1  0  0  0  0
  5  6  1  0  0  0  0
  5  9  2  0  0  0  0
  6  7  2  0  0  0  0
  6 28  1  0  0  0  0
  7  8  1  0  0  0  0
  7  9  1  0  0  0  0
  9 10  1  0  0  0  0
 10 11  2  3  0  0  0
 10 29  1  0  0  0  0
 11 12  1  0  0  0  0
 11 13  1  0  0  0  0
 12 30  1  0  0  0  0
 12 31  1  0  0  0  0
 12 32  1  0  0  0  0
 13 14  2  3  0  0  0
 13 33  1  0  0  0  0
 14 15  1  0  0  0  0
 14 34  1  0  0  0  0
 15 16  2  3  0  0  0
 15 35  1  0  0  0  0
 16 17  1  0  0  0  0
 16 36  1  0  0  0  0
 17 18  2  3  0  0  0
 17 37  1  0  0  0  0
 18 19  1  0  0  0  0
 19 20  2  3  0  0  0
 20 21  1  0  0  0  0
 21 22  2  3  0  0  0
 22 23  1  0  0  0  0
 22 38  1  0  0  0  0
 23 24  2  3  0  0  0
 23 39  1  0  0  0  0
M  END
$$$$
