
 OpenBabel04232217003D

235235  0  0  1  0  0  0  0  0999 V2000
    2.7694   -1.0705    0.1232 O   0  0  0  0  0  0  0  0  0  0  0  0
    2.0699    0.1614   -0.0701 C   0  0  0  0  0  0  0  0  0  0  0  0
    3.1110    1.3061   -0.1746 C   0  0  3  0  0  0  0  0  0  0  0  0
    3.8679    1.1088   -1.5060 C   0  0  0  0  0  0  0  0  0  0  0  0
    3.1006    1.6273   -2.7224 C   0  0  0  0  0  0  0  0  0  0  0  0
    3.5401    3.0337   -3.1020 C   0  0  0  0  0  0  0  0  0  0  0  0
    3.1245    4.1197   -2.1186 C   0  0  0  0  0  0  0  0  0  0  0  0
    3.4263    3.8483   -0.6467 C   0  0  0  0  0  0  0  0  0  0  0  0
    2.5358    2.7529    0.0019 C   0  0  3  0  0  0  0  0  0  0  0  0
    2.3943    3.1630    1.4905 C   0  0  0  0  0  0  0  0  0  0  0  0
    1.4659    2.2778    2.2915 C   0  0  0  0  0  0  0  0  0  0  0  0
    1.3311    2.7368    3.7297 C   0  0  0  0  0  0  0  0  0  0  0  0
    0.3952    1.7736    4.4404 C   0  0  0  0  0  0  0  0  0  0  0  0
    0.3019    2.1152    5.9100 C   0  0  0  0  0  0  0  0  0  0  0  0
   -0.6405    1.1438    6.5941 C   0  0  0  0  0  0  0  0  0  0  0  0
   -0.7392    1.4917    8.0642 C   0  0  0  0  0  0  0  0  0  0  0  0
   -1.6847    0.5332    8.7580 C   0  0  0  0  0  0  0  0  0  0  0  0
   -1.7796    0.8947   10.2265 C   0  0  0  0  0  0  0  0  0  0  0  0
   -2.7252   -0.0588   10.9275 C   0  0  0  0  0  0  0  0  0  0  0  0
   -2.8205    0.3047   12.3957 C   0  0  0  0  0  0  0  0  0  0  0  0
   -3.7687   -0.6477   13.0961 C   0  0  0  0  0  0  0  0  0  0  0  0
   -3.8648   -0.2858   14.5647 C   0  0  0  0  0  0  0  0  0  0  0  0
   -4.8143   -1.2369   15.2661 C   0  0  0  0  0  0  0  0  0  0  0  0
   -4.9032   -0.8786   16.7364 C   0  0  0  0  0  0  0  0  0  0  0  0
   -5.8472   -1.8326   17.4416 C   0  0  0  0  0  0  0  0  0  0  0  0
   -5.9381   -1.4714   18.9115 C   0  0  0  0  0  0  0  0  0  0  0  0
   -6.8842   -2.4239   19.6166 C   0  0  0  0  0  0  0  0  0  0  0  0
   -6.9748   -2.0645   21.0871 C   0  0  0  0  0  0  0  0  0  0  0  0
   -7.9214   -3.0173   21.7915 C   0  0  0  0  0  0  0  0  0  0  0  0
   -8.0130   -2.6583   23.2621 C   0  0  0  0  0  0  0  0  0  0  0  0
   -8.9595   -3.6116   23.9662 C   0  0  0  0  0  0  0  0  0  0  0  0
   -9.0507   -3.2534   25.4371 C   0  0  0  0  0  0  0  0  0  0  0  0
   -9.9990   -4.2051   26.1410 C   0  0  0  0  0  0  0  0  0  0  0  0
  -10.0901   -3.8467   27.6119 C   0  0  0  0  0  0  0  0  0  0  0  0
  -11.0392   -4.7976   28.3156 C   0  0  0  0  0  0  0  0  0  0  0  0
  -11.1293   -4.4396   29.7867 C   0  0  0  0  0  0  0  0  0  0  0  0
  -12.0770   -5.3914   30.4912 C   0  0  0  0  0  0  0  0  0  0  0  0
  -12.1690   -5.0315   31.9617 C   0  0  0  0  0  0  0  0  0  0  0  0
  -13.1200   -5.9806   32.6653 C   0  0  0  0  0  0  0  0  0  0  0  0
  -13.2083   -5.6242   34.1368 C   0  0  0  0  0  0  0  0  0  0  0  0
  -14.1575   -6.5754   34.8400 C   0  0  0  0  0  0  0  0  0  0  0  0
  -14.2474   -6.2187   36.3113 C   0  0  0  0  0  0  0  0  0  0  0  0
  -15.1956   -7.1709   37.0146 C   0  0  0  0  0  0  0  0  0  0  0  0
  -15.2856   -6.8137   38.4857 C   0  0  0  0  0  0  0  0  0  0  0  0
  -16.2334   -7.7660   39.1895 C   0  0  0  0  0  0  0  0  0  0  0  0
  -16.3239   -7.4078   40.6603 C   0  0  0  0  0  0  0  0  0  0  0  0
  -17.2706   -8.3607   41.3645 C   0  0  0  0  0  0  0  0  0  0  0  0
  -17.3599   -8.0022   42.8352 C   0  0  0  0  0  0  0  0  0  0  0  0
  -18.3082   -8.9537   43.5392 C   0  0  0  0  0  0  0  0  0  0  0  0
  -18.3997   -8.5942   45.0096 C   0  0  0  0  0  0  0  0  0  0  0  0
  -19.3470   -9.5461   45.7144 C   0  0  0  0  0  0  0  0  0  0  0  0
  -19.4363   -9.1886   47.1856 C   0  0  0  0  0  0  0  0  0  0  0  0
  -20.3828  -10.1421   47.8895 C   0  0  0  0  0  0  0  0  0  0  0  0
  -20.4760   -9.7835   49.3601 C   0  0  0  0  0  0  0  0  0  0  0  0
  -21.4218  -10.7379   50.0639 C   0  0  0  0  0  0  0  0  0  0  0  0
  -21.5171  -10.3766   51.5339 C   0  0  0  0  0  0  0  0  0  0  0  0
  -22.4658  -11.3278   52.2379 C   0  0  0  0  0  0  0  0  0  0  0  0
  -22.5615  -10.9653   53.7076 C   0  0  0  0  0  0  0  0  0  0  0  0
  -23.5111  -11.9157   54.4115 C   0  0  0  0  0  0  0  0  0  0  0  0
  -23.6069  -11.5532   55.8812 C   0  0  0  0  0  0  0  0  0  0  0  0
  -24.5567  -12.5036   56.5851 C   0  0  0  0  0  0  0  0  0  0  0  0
  -24.6527  -12.1415   58.0549 C   0  0  0  0  0  0  0  0  0  0  0  0
  -25.6024  -13.0921   58.7587 C   0  0  0  0  0  0  0  0  0  0  0  0
  -25.6986  -12.7303   60.2290 C   0  0  0  0  0  0  0  0  0  0  0  0
  -26.6481  -13.6811   60.9329 C   0  0  0  0  0  0  0  0  0  0  0  0
  -26.7441  -13.3200   62.4034 C   0  0  0  0  0  0  0  0  0  0  0  0
  -27.6923  -14.2720   63.1085 C   0  0  0  0  0  0  0  0  0  0  0  0
  -27.7910  -13.9091   64.5788 C   0  0  0  0  0  0  0  0  0  0  0  0
  -28.7401  -14.8602   65.2851 C   0  0  0  0  0  0  0  0  0  0  0  0
  -28.8414  -14.4960   66.7566 C   0  0  0  0  0  0  0  0  0  0  0  0
  -29.7926  -15.4470   67.4653 C   0  0  0  0  0  0  0  0  0  0  0  0
  -29.8957  -15.0854   68.9355 C   0  0  0  0  0  0  0  0  0  0  0  0
  -30.8463  -16.0320   69.6460 C   0  0  0  0  0  0  0  0  0  0  0  0
  -30.9481  -15.6680   71.1223 C   0  0  0  0  0  0  0  0  0  0  0  0
  -31.9004  -16.6156   71.8347 C   0  0  0  0  0  0  0  0  0  0  0  0
  -32.0050  -16.2551   73.3112 C   0  0  0  0  0  0  0  0  0  0  0  0
  -32.9588  -17.2048   74.0233 C   0  0  0  0  0  0  0  0  0  0  0  0
  -33.0773  -16.8596   75.5059 C   0  0  0  0  0  0  0  0  0  0  0  0
  -34.0271  -17.8064   76.2123 C   0  0  0  0  0  0  0  0  0  0  0  0
    2.1068   -1.7777    0.1940 H   0  0  0  0  0  0  0  0  0  0  0  0
    1.3694    0.2564    0.7549 H   0  0  0  0  0  0  0  0  0  0  0  0
    1.4707    0.0715   -0.9806 H   0  0  0  0  0  0  0  0  0  0  0  0
    3.8520    1.1417    0.6212 H   0  0  0  0  0  0  0  0  0  0  0  0
    4.0774    0.0427   -1.6550 H   0  0  0  0  0  0  0  0  0  0  0  0
    4.8561    1.5790   -1.4397 H   0  0  0  0  0  0  0  0  0  0  0  0
    2.0138    1.5961   -2.5729 H   0  0  0  0  0  0  0  0  0  0  0  0
    3.3110    0.9651   -3.5702 H   0  0  0  0  0  0  0  0  0  0  0  0
    3.1197    3.2822   -4.0838 H   0  0  0  0  0  0  0  0  0  0  0  0
    4.6295    3.0522   -3.2239 H   0  0  0  0  0  0  0  0  0  0  0  0
    2.0542    4.3285   -2.2340 H   0  0  0  0  0  0  0  0  0  0  0  0
    3.6446    5.0428   -2.4066 H   0  0  0  0  0  0  0  0  0  0  0  0
    3.2586    4.8040   -0.1316 H   0  0  0  0  0  0  0  0  0  0  0  0
    4.4892    3.6244   -0.4964 H   0  0  0  0  0  0  0  0  0  0  0  0
    1.5354    2.7963   -0.4497 H   0  0  0  0  0  0  0  0  0  0  0  0
    2.0064    4.1898    1.5445 H   0  0  0  0  0  0  0  0  0  0  0  0
    3.3842    3.1788    1.9640 H   0  0  0  0  0  0  0  0  0  0  0  0
    1.8743    1.2671    2.3349 H   0  0  0  0  0  0  0  0  0  0  0  0
    0.4787    2.2445    1.8141 H   0  0  0  0  0  0  0  0  0  0  0  0
    0.9425    3.7598    3.7826 H   0  0  0  0  0  0  0  0  0  0  0  0
    2.3156    2.7299    4.2134 H   0  0  0  0  0  0  0  0  0  0  0  0
    0.7577    0.7434    4.3267 H   0  0  0  0  0  0  0  0  0  0  0  0
   -0.6000    1.8145    3.9801 H   0  0  0  0  0  0  0  0  0  0  0  0
   -0.0600    3.1427    6.0336 H   0  0  0  0  0  0  0  0  0  0  0  0
    1.2955    2.0594    6.3712 H   0  0  0  0  0  0  0  0  0  0  0  0
   -0.2757    0.1157    6.4747 H   0  0  0  0  0  0  0  0  0  0  0  0
   -1.6330    1.1907    6.1287 H   0  0  0  0  0  0  0  0  0  0  0  0
   -1.0988    2.5216    8.1800 H   0  0  0  0  0  0  0  0  0  0  0  0
    0.2537    1.4399    8.5277 H   0  0  0  0  0  0  0  0  0  0  0  0
   -1.3247   -0.4971    8.6465 H   0  0  0  0  0  0  0  0  0  0  0  0
   -2.6775    0.5826    8.2939 H   0  0  0  0  0  0  0  0  0  0  0  0
   -2.1379    1.9259   10.3356 H   0  0  0  0  0  0  0  0  0  0  0  0
   -0.7861    0.8458   10.6891 H   0  0  0  0  0  0  0  0  0  0  0  0
   -2.3661   -1.0896   10.8189 H   0  0  0  0  0  0  0  0  0  0  0  0
   -3.7181   -0.0099   10.4637 H   0  0  0  0  0  0  0  0  0  0  0  0
   -3.1773    1.3365   12.5038 H   0  0  0  0  0  0  0  0  0  0  0  0
   -1.8275    0.2545   12.8593 H   0  0  0  0  0  0  0  0  0  0  0  0
   -3.4115   -1.6791   12.9868 H   0  0  0  0  0  0  0  0  0  0  0  0
   -4.7613   -0.5968   12.6316 H   0  0  0  0  0  0  0  0  0  0  0  0
   -4.2202    0.7463   14.6737 H   0  0  0  0  0  0  0  0  0  0  0  0
   -2.8719   -0.3378   15.0283 H   0  0  0  0  0  0  0  0  0  0  0  0
   -4.4617   -2.2695   15.1525 H   0  0  0  0  0  0  0  0  0  0  0  0
   -5.8084   -1.1808   14.8056 H   0  0  0  0  0  0  0  0  0  0  0  0
   -5.2595    0.1529   16.8489 H   0  0  0  0  0  0  0  0  0  0  0  0
   -3.9079   -0.9300   17.1949 H   0  0  0  0  0  0  0  0  0  0  0  0
   -5.4889   -2.8635   17.3308 H   0  0  0  0  0  0  0  0  0  0  0  0
   -6.8418   -1.7833   16.9815 H   0  0  0  0  0  0  0  0  0  0  0  0
   -6.2944   -0.4398   19.0221 H   0  0  0  0  0  0  0  0  0  0  0  0
   -4.9436   -1.5225   19.3716 H   0  0  0  0  0  0  0  0  0  0  0  0
   -6.5286   -3.4556   19.5046 H   0  0  0  0  0  0  0  0  0  0  0  0
   -7.8788   -2.3717   19.1566 H   0  0  0  0  0  0  0  0  0  0  0  0
   -7.3302   -1.0328   21.1989 H   0  0  0  0  0  0  0  0  0  0  0  0
   -5.9802   -2.1169   21.5470 H   0  0  0  0  0  0  0  0  0  0  0  0
   -7.5655   -4.0489   21.6796 H   0  0  0  0  0  0  0  0  0  0  0  0
   -8.9157   -2.9652   21.3310 H   0  0  0  0  0  0  0  0  0  0  0  0
   -8.3692   -1.6268   23.3739 H   0  0  0  0  0  0  0  0  0  0  0  0
   -7.0187   -2.7101   23.7226 H   0  0  0  0  0  0  0  0  0  0  0  0
   -8.6037   -4.6432   23.8537 H   0  0  0  0  0  0  0  0  0  0  0  0
   -9.9539   -3.5592   23.5059 H   0  0  0  0  0  0  0  0  0  0  0  0
   -9.4050   -2.2213   25.5496 H   0  0  0  0  0  0  0  0  0  0  0  0
   -8.0565   -3.3073   25.8976 H   0  0  0  0  0  0  0  0  0  0  0  0
   -9.6449   -5.2373   26.0286 H   0  0  0  0  0  0  0  0  0  0  0  0
  -10.9933   -4.1511   25.6805 H   0  0  0  0  0  0  0  0  0  0  0  0
  -10.4435   -2.8142   27.7242 H   0  0  0  0  0  0  0  0  0  0  0  0
   -9.0959   -3.9013   28.0724 H   0  0  0  0  0  0  0  0  0  0  0  0
  -10.6863   -5.8301   28.2028 H   0  0  0  0  0  0  0  0  0  0  0  0
  -12.0335   -4.7422   27.8556 H   0  0  0  0  0  0  0  0  0  0  0  0
  -11.4835   -3.4074   29.8994 H   0  0  0  0  0  0  0  0  0  0  0  0
  -10.1348   -4.4935   30.2466 H   0  0  0  0  0  0  0  0  0  0  0  0
  -11.7217   -6.4234   30.3802 H   0  0  0  0  0  0  0  0  0  0  0  0
  -13.0711   -5.3392   30.0302 H   0  0  0  0  0  0  0  0  0  0  0  0
  -12.5212   -3.9986   32.0730 H   0  0  0  0  0  0  0  0  0  0  0  0
  -11.1752   -5.0871   32.4230 H   0  0  0  0  0  0  0  0  0  0  0  0
  -12.7699   -7.0140   32.5511 H   0  0  0  0  0  0  0  0  0  0  0  0
  -14.1145   -5.9222   32.2060 H   0  0  0  0  0  0  0  0  0  0  0  0
  -13.5601   -4.5915   34.2514 H   0  0  0  0  0  0  0  0  0  0  0  0
  -12.2137   -5.6810   34.5961 H   0  0  0  0  0  0  0  0  0  0  0  0
  -13.8048   -7.6079   34.7263 H   0  0  0  0  0  0  0  0  0  0  0  0
  -15.1520   -6.5196   34.3802 H   0  0  0  0  0  0  0  0  0  0  0  0
  -14.6012   -5.1866   36.4252 H   0  0  0  0  0  0  0  0  0  0  0  0
  -13.2530   -6.2737   36.7711 H   0  0  0  0  0  0  0  0  0  0  0  0
  -14.8419   -8.2031   36.9011 H   0  0  0  0  0  0  0  0  0  0  0  0
  -16.1902   -7.1163   36.5549 H   0  0  0  0  0  0  0  0  0  0  0  0
  -15.6397   -5.7815   38.5992 H   0  0  0  0  0  0  0  0  0  0  0  0
  -14.2911   -6.8681   38.9456 H   0  0  0  0  0  0  0  0  0  0  0  0
  -15.8786   -8.7979   39.0767 H   0  0  0  0  0  0  0  0  0  0  0  0
  -17.2277   -7.7123   38.7294 H   0  0  0  0  0  0  0  0  0  0  0  0
  -16.6796   -6.3762   40.7729 H   0  0  0  0  0  0  0  0  0  0  0  0
  -15.3293   -7.4601   41.1203 H   0  0  0  0  0  0  0  0  0  0  0  0
  -16.9164   -9.3929   41.2518 H   0  0  0  0  0  0  0  0  0  0  0  0
  -18.2654   -8.3069   40.9055 H   0  0  0  0  0  0  0  0  0  0  0  0
  -17.7138   -6.9700   42.9477 H   0  0  0  0  0  0  0  0  0  0  0  0
  -16.3648   -8.0558   43.2941 H   0  0  0  0  0  0  0  0  0  0  0  0
  -17.9539   -9.9859   43.4276 H   0  0  0  0  0  0  0  0  0  0  0  0
  -19.3023   -8.9006   43.0784 H   0  0  0  0  0  0  0  0  0  0  0  0
  -18.7545   -7.5622   45.1215 H   0  0  0  0  0  0  0  0  0  0  0  0
  -17.4051   -8.6473   45.4693 H   0  0  0  0  0  0  0  0  0  0  0  0
  -18.9927  -10.5782   45.6018 H   0  0  0  0  0  0  0  0  0  0  0  0
  -20.3418   -9.4926   45.2551 H   0  0  0  0  0  0  0  0  0  0  0  0
  -19.7907   -8.1567   47.2995 H   0  0  0  0  0  0  0  0  0  0  0  0
  -18.4413   -9.2426   47.6447 H   0  0  0  0  0  0  0  0  0  0  0  0
  -20.0263  -11.1734   47.7776 H   0  0  0  0  0  0  0  0  0  0  0  0
  -21.3769  -10.0904   47.4283 H   0  0  0  0  0  0  0  0  0  0  0  0
  -20.8340   -8.7526   49.4715 H   0  0  0  0  0  0  0  0  0  0  0  0
  -19.4820   -9.8336   49.8214 H   0  0  0  0  0  0  0  0  0  0  0  0
  -21.0635  -11.7689   49.9544 H   0  0  0  0  0  0  0  0  0  0  0  0
  -22.4153  -10.6887   49.6014 H   0  0  0  0  0  0  0  0  0  0  0  0
  -21.8731   -9.3447   51.6430 H   0  0  0  0  0  0  0  0  0  0  0  0
  -20.5239  -10.4281   51.9968 H   0  0  0  0  0  0  0  0  0  0  0  0
  -22.1097  -12.3597   52.1296 H   0  0  0  0  0  0  0  0  0  0  0  0
  -23.4589  -11.2768   51.7747 H   0  0  0  0  0  0  0  0  0  0  0  0
  -22.9169   -9.9331   53.8160 H   0  0  0  0  0  0  0  0  0  0  0  0
  -21.5686  -11.0170   54.1711 H   0  0  0  0  0  0  0  0  0  0  0  0
  -23.1558  -12.9479   54.3031 H   0  0  0  0  0  0  0  0  0  0  0  0
  -24.5040  -11.8638   53.9480 H   0  0  0  0  0  0  0  0  0  0  0  0
  -23.9622  -10.5210   55.9894 H   0  0  0  0  0  0  0  0  0  0  0  0
  -22.6140  -11.6051   56.3448 H   0  0  0  0  0  0  0  0  0  0  0  0
  -24.2014  -13.5358   56.4766 H   0  0  0  0  0  0  0  0  0  0  0  0
  -25.5495  -12.4517   56.1213 H   0  0  0  0  0  0  0  0  0  0  0  0
  -25.0079  -11.1093   58.1634 H   0  0  0  0  0  0  0  0  0  0  0  0
  -23.6598  -12.1934   58.5184 H   0  0  0  0  0  0  0  0  0  0  0  0
  -25.2469  -14.1242   58.6500 H   0  0  0  0  0  0  0  0  0  0  0  0
  -26.5952  -13.0402   58.2950 H   0  0  0  0  0  0  0  0  0  0  0  0
  -26.0538  -11.6981   60.3372 H   0  0  0  0  0  0  0  0  0  0  0  0
  -24.7055  -12.7820   60.6921 H   0  0  0  0  0  0  0  0  0  0  0  0
  -26.2927  -14.7131   60.8235 H   0  0  0  0  0  0  0  0  0  0  0  0
  -27.6410  -13.6289   60.4693 H   0  0  0  0  0  0  0  0  0  0  0  0
  -27.1006  -12.2882   62.5120 H   0  0  0  0  0  0  0  0  0  0  0  0
  -25.7508  -13.3706   62.8662 H   0  0  0  0  0  0  0  0  0  0  0  0
  -27.3343  -15.3033   63.0009 H   0  0  0  0  0  0  0  0  0  0  0  0
  -28.6848  -14.2229   62.6437 H   0  0  0  0  0  0  0  0  0  0  0  0
  -28.1480  -12.8773   64.6851 H   0  0  0  0  0  0  0  0  0  0  0  0
  -26.7982  -13.9583   65.0428 H   0  0  0  0  0  0  0  0  0  0  0  0
  -28.3819  -15.8916   65.1790 H   0  0  0  0  0  0  0  0  0  0  0  0
  -29.7319  -14.8116   64.8191 H   0  0  0  0  0  0  0  0  0  0  0  0
  -29.1979  -13.4640   66.8603 H   0  0  0  0  0  0  0  0  0  0  0  0
  -27.8487  -14.5448   67.2206 H   0  0  0  0  0  0  0  0  0  0  0  0
  -29.4342  -16.4780   67.3567 H   0  0  0  0  0  0  0  0  0  0  0  0
  -30.7831  -15.3966   66.9966 H   0  0  0  0  0  0  0  0  0  0  0  0
  -30.2477  -14.0524   69.0411 H   0  0  0  0  0  0  0  0  0  0  0  0
  -28.9038  -15.1327   69.4007 H   0  0  0  0  0  0  0  0  0  0  0  0
  -30.4907  -17.0617   69.5403 H   0  0  0  0  0  0  0  0  0  0  0  0
  -31.8356  -15.9799   69.1814 H   0  0  0  0  0  0  0  0  0  0  0  0
  -31.3033  -14.6365   71.2288 H   0  0  0  0  0  0  0  0  0  0  0  0
  -29.9574  -15.7187   71.5887 H   0  0  0  0  0  0  0  0  0  0  0  0
  -31.5441  -17.6479   71.7258 H   0  0  0  0  0  0  0  0  0  0  0  0
  -32.8913  -16.5648   71.3658 H   0  0  0  0  0  0  0  0  0  0  0  0
  -32.3603  -15.2221   73.4141 H   0  0  0  0  0  0  0  0  0  0  0  0
  -31.0117  -16.3064   73.7744 H   0  0  0  0  0  0  0  0  0  0  0  0
  -32.6028  -18.2372   73.9122 H   0  0  0  0  0  0  0  0  0  0  0  0
  -33.9492  -17.1545   73.5527 H   0  0  0  0  0  0  0  0  0  0  0  0
  -33.4351  -15.8289   75.6175 H   0  0  0  0  0  0  0  0  0  0  0  0
  -32.0882  -16.9122   75.9771 H   0  0  0  0  0  0  0  0  0  0  0  0
  -35.0290  -17.7517   75.7744 H   0  0  0  0  0  0  0  0  0  0  0  0
  -34.1021  -17.5478   77.2720 H   0  0  0  0  0  0  0  0  0  0  0  0
  -33.6755  -18.8403   76.1358 H   0  0  0  0  0  0  0  0  0  0  0  0
  1  2  1  0  0  0  0
  1 80  1  0  0  0  0
  2  3  1  0  0  0  0
  2 81  1  0  0  0  0
  2 82  1  0  0  0  0
  3  4  1  0  0  0  0
  3  9  1  0  0  0  0
  3 83  1  0  0  0  0
  4  5  1  0  0  0  0
  4 84  1  0  0  0  0
  4 85  1  0  0  0  0
  5  6  1  0  0  0  0
  5 86  1  0  0  0  0
  5 87  1  0  0  0  0
  6  7  1  0  0  0  0
  6 88  1  0  0  0  0
  6 89  1  0  0  0  0
  7  8  1  0  0  0  0
  7 90  1  0  0  0  0
  7 91  1  0  0  0  0
  8  9  1  0  0  0  0
  8 92  1  0  0  0  0
  8 93  1  0  0  0  0
  9 10  1  0  0  0  0
  9 94  1  0  0  0  0
 10 11  1  0  0  0  0
 10 95  1  0  0  0  0
 10 96  1  0  0  0  0
 11 12  1  0  0  0  0
 11 97  1  0  0  0  0
 11 98  1  0  0  0  0
 12 13  1  0  0  0  0
 12 99  1  0  0  0  0
 12100  1  0  0  0  0
 13 14  1  0  0  0  0
 13101  1  0  0  0  0
 13102  1  0  0  0  0
 14 15  1  0  0  0  0
 14103  1  0  0  0  0
 14104  1  0  0  0  0
 15 16  1  0  0  0  0
 15105  1  0  0  0  0
 15106  1  0  0  0  0
 16 17  1  0  0  0  0
 16107  1  0  0  0  0
 16108  1  0  0  0  0
 17 18  1  0  0  0  0
 17109  1  0  0  0  0
 17110  1  0  0  0  0
 18 19  1  0  0  0  0
 18111  1  0  0  0  0
 18112  1  0  0  0  0
 19 20  1  0  0  0  0
 19113  1  0  0  0  0
 19114  1  0  0  0  0
 20 21  1  0  0  0  0
 20115  1  0  0  0  0
 20116  1  0  0  0  0
 21 22  1  0  0  0  0
 21117  1  0  0  0  0
 21118  1  0  0  0  0
 22 23  1  0  0  0  0
 22119  1  0  0  0  0
 22120  1  0  0  0  0
 23 24  1  0  0  0  0
 23121  1  0  0  0  0
 23122  1  0  0  0  0
 24 25  1  0  0  0  0
 24123  1  0  0  0  0
 24124  1  0  0  0  0
 25 26  1  0  0  0  0
 25125  1  0  0  0  0
 25126  1  0  0  0  0
 26 27  1  0  0  0  0
 26127  1  0  0  0  0
 26128  1  0  0  0  0
 27 28  1  0  0  0  0
 27129  1  0  0  0  0
 27130  1  0  0  0  0
 28 29  1  0  0  0  0
 28131  1  0  0  0  0
 28132  1  0  0  0  0
 29 30  1  0  0  0  0
 29133  1  0  0  0  0
 29134  1  0  0  0  0
 30 31  1  0  0  0  0
 30135  1  0  0  0  0
 30136  1  0  0  0  0
 31 32  1  0  0  0  0
 31137  1  0  0  0  0
 31138  1  0  0  0  0
 32 33  1  0  0  0  0
 32139  1  0  0  0  0
 32140  1  0  0  0  0
 33 34  1  0  0  0  0
 33141  1  0  0  0  0
 33142  1  0  0  0  0
 34 35  1  0  0  0  0
 34143  1  0  0  0  0
 34144  1  0  0  0  0
 35 36  1  0  0  0  0
 35145  1  0  0  0  0
 35146  1  0  0  0  0
 36 37  1  0  0  0  0
 36147  1  0  0  0  0
 36148  1  0  0  0  0
 37 38  1  0  0  0  0
 37149  1  0  0  0  0
 37150  1  0  0  0  0
 38 39  1  0  0  0  0
 38151  1  0  0  0  0
 38152  1  0  0  0  0
 39 40  1  0  0  0  0
 39153  1  0  0  0  0
 39154  1  0  0  0  0
 40 41  1  0  0  0  0
 40155  1  0  0  0  0
 40156  1  0  0  0  0
 41 42  1  0  0  0  0
 41157  1  0  0  0  0
 41158  1  0  0  0  0
 42 43  1  0  0  0  0
 42159  1  0  0  0  0
 42160  1  0  0  0  0
 43 44  1  0  0  0  0
 43161  1  0  0  0  0
 43162  1  0  0  0  0
 44 45  1  0  0  0  0
 44163  1  0  0  0  0
 44164  1  0  0  0  0
 45 46  1  0  0  0  0
 45165  1  0  0  0  0
 45166  1  0  0  0  0
 46 47  1  0  0  0  0
 46167  1  0  0  0  0
 46168  1  0  0  0  0
 47 48  1  0  0  0  0
 47169  1  0  0  0  0
 47170  1  0  0  0  0
 48 49  1  0  0  0  0
 48171  1  0  0  0  0
 48172  1  0  0  0  0
 49 50  1  0  0  0  0
 49173  1  0  0  0  0
 49174  1  0  0  0  0
 50 51  1  0  0  0  0
 50175  1  0  0  0  0
 50176  1  0  0  0  0
 51 52  1  0  0  0  0
 51177  1  0  0  0  0
 51178  1  0  0  0  0
 52 53  1  0  0  0  0
 52179  1  0  0  0  0
 52180  1  0  0  0  0
 53 54  1  0  0  0  0
 53181  1  0  0  0  0
 53182  1  0  0  0  0
 54 55  1  0  0  0  0
 54183  1  0  0  0  0
 54184  1  0  0  0  0
 55 56  1  0  0  0  0
 55185  1  0  0  0  0
 55186  1  0  0  0  0
 56 57  1  0  0  0  0
 56187  1  0  0  0  0
 56188  1  0  0  0  0
 57 58  1  0  0  0  0
 57189  1  0  0  0  0
 57190  1  0  0  0  0
 58 59  1  0  0  0  0
 58191  1  0  0  0  0
 58192  1  0  0  0  0
 59 60  1  0  0  0  0
 59193  1  0  0  0  0
 59194  1  0  0  0  0
 60 61  1  0  0  0  0
 60195  1  0  0  0  0
 60196  1  0  0  0  0
 61 62  1  0  0  0  0
 61197  1  0  0  0  0
 61198  1  0  0  0  0
 62 63  1  0  0  0  0
 62199  1  0  0  0  0
 62200  1  0  0  0  0
 63 64  1  0  0  0  0
 63201  1  0  0  0  0
 63202  1  0  0  0  0
 64 65  1  0  0  0  0
 64203  1  0  0  0  0
 64204  1  0  0  0  0
 65 66  1  0  0  0  0
 65205  1  0  0  0  0
 65206  1  0  0  0  0
 66 67  1  0  0  0  0
 66207  1  0  0  0  0
 66208  1  0  0  0  0
 67 68  1  0  0  0  0
 67209  1  0  0  0  0
 67210  1  0  0  0  0
 68 69  1  0  0  0  0
 68211  1  0  0  0  0
 68212  1  0  0  0  0
 69 70  1  0  0  0  0
 69213  1  0  0  0  0
 69214  1  0  0  0  0
 70 71  1  0  0  0  0
 70215  1  0  0  0  0
 70216  1  0  0  0  0
 71 72  1  0  0  0  0
 71217  1  0  0  0  0
 71218  1  0  0  0  0
 72 73  1  0  0  0  0
 72219  1  0  0  0  0
 72220  1  0  0  0  0
 73 74  1  0  0  0  0
 73221  1  0  0  0  0
 73222  1  0  0  0  0
 74 75  1  0  0  0  0
 74223  1  0  0  0  0
 74224  1  0  0  0  0
 75 76  1  0  0  0  0
 75225  1  0  0  0  0
 75226  1  0  0  0  0
 76 77  1  0  0  0  0
 76227  1  0  0  0  0
 76228  1  0  0  0  0
 77 78  1  0  0  0  0
 77229  1  0  0  0  0
 77230  1  0  0  0  0
 78 79  1  0  0  0  0
 78231  1  0  0  0  0
 78232  1  0  0  0  0
 79233  1  0  0  0  0
 79234  1  0  0  0  0
 79235  1  0  0  0  0
M  END
$$$$
