
 OpenBabel04232216503D

 62 64  0  0  0  0  0  0  0  0999 V2000
    3.9504   -1.5660    0.1520 C   0  0  0  0  0  0  0  0  0  0  0  0
    4.5388   -2.3983    1.2880 C   0  0  0  0  0  0  0  0  0  0  0  0
    3.5993   -2.4976    2.2734 N   0  0  0  0  0  0  0  0  0  0  0  0
    3.6583   -1.6125    3.2269 C   0  0  0  0  0  0  0  0  0  0  0  0
    2.3925   -1.5856    4.1779 C   0  0  0  0  0  0  0  0  0  0  0  0
    1.7753   -0.4949    5.0885 C   0  0  0  0  0  0  0  0  0  0  0  0
    2.5939    0.4283    5.9935 C   0  0  0  0  0  0  0  0  0  0  0  0
    2.7234    1.8470    5.4084 C   0  0  0  0  0  0  0  0  0  0  0  0
    4.0555    2.0108    4.7330 C   0  0  0  0  0  0  0  0  0  0  0  0
    4.0013    2.5935    3.3098 C   0  0  0  0  0  0  0  0  0  0  0  0
    5.0537    1.7989    2.6138 C   0  0  0  0  0  0  0  0  0  0  0  0
    5.7004    2.0861    1.3150 C   0  0  0  0  0  0  0  0  0  0  0  0
    6.7403    0.9855    1.1095 C   0  0  0  0  0  0  0  0  0  0  0  0
    7.5575    1.4383   -0.0487 C   0  0  0  0  0  0  0  0  0  0  0  0
    8.8339    1.8758   -0.0184 C   0  0  0  0  0  0  0  0  0  0  0  0
    9.7259    1.8227    1.1146 C   0  0  0  0  0  0  0  0  0  0  0  0
   10.0472    0.6786    1.7336 C   0  0  0  0  0  0  0  0  0  0  0  0
    9.4839   -0.5797    1.3178 C   0  0  0  0  0  0  0  0  0  0  0  0
    8.1815   -0.9087    1.3383 C   0  0  0  0  0  0  0  0  0  0  0  0
    6.9814   -0.1612    1.8559 C   0  0  0  0  0  0  0  0  0  0  0  0
    4.9736   -1.0631    3.6652 C   0  0  0  0  0  0  0  0  0  0  0  0
    6.2212   -0.6418    3.2412 C   0  0  0  0  0  0  0  0  0  0  0  0
    7.0428   -1.1453    4.3530 C   0  0  0  0  0  0  0  0  0  0  0  0
    8.3245   -0.9035    4.4482 C   0  0  0  0  0  0  0  0  0  0  0  0
    9.1202   -2.1026    4.3785 C   0  0  0  0  0  0  0  0  0  0  0  0
    8.9182   -3.1498    3.5483 C   0  0  0  0  0  0  0  0  0  0  0  0
    7.8873   -3.7733    2.6686 C   0  0  0  0  0  0  0  0  0  0  0  0
    6.7776   -3.7558    1.8734 C   0  0  0  0  0  0  0  0  0  0  0  0
    5.7948   -2.9027    1.1772 C   0  0  0  0  0  0  0  0  0  0  0  0
    2.8541   -1.5110    0.2370 H   0  0  0  0  0  0  0  0  0  0  0  0
    4.1695   -1.9903   -0.8271 H   0  0  0  0  0  0  0  0  0  0  0  0
    4.3136   -0.5374    0.2078 H   0  0  0  0  0  0  0  0  0  0  0  0
    2.4827   -2.4910    4.7943 H   0  0  0  0  0  0  0  0  0  0  0  0
    1.5568   -1.8124    3.4918 H   0  0  0  0  0  0  0  0  0  0  0  0
    1.1251   -1.0522    5.7864 H   0  0  0  0  0  0  0  0  0  0  0  0
    1.0545    0.1002    4.5129 H   0  0  0  0  0  0  0  0  0  0  0  0
    3.5489   -0.0280    6.2750 H   0  0  0  0  0  0  0  0  0  0  0  0
    2.0489    0.5507    6.9406 H   0  0  0  0  0  0  0  0  0  0  0  0
    2.6647    2.5941    6.2058 H   0  0  0  0  0  0  0  0  0  0  0  0
    1.9034    2.0596    4.7170 H   0  0  0  0  0  0  0  0  0  0  0  0
    4.5103    1.0206    4.7164 H   0  0  0  0  0  0  0  0  0  0  0  0
    4.7586    2.5845    5.3459 H   0  0  0  0  0  0  0  0  0  0  0  0
    4.2203    3.6617    3.3049 H   0  0  0  0  0  0  0  0  0  0  0  0
    3.0427    2.4081    2.8150 H   0  0  0  0  0  0  0  0  0  0  0  0
    4.5433    0.8541    2.4223 H   0  0  0  0  0  0  0  0  0  0  0  0
    5.8904    1.7233    3.3230 H   0  0  0  0  0  0  0  0  0  0  0  0
    6.1877    3.0672    1.3544 H   0  0  0  0  0  0  0  0  0  0  0  0
    4.9795    2.0851    0.4908 H   0  0  0  0  0  0  0  0  0  0  0  0
    7.0120    1.5133   -0.9897 H   0  0  0  0  0  0  0  0  0  0  0  0
    9.2707    2.2805   -0.9286 H   0  0  0  0  0  0  0  0  0  0  0  0
   10.2287    2.7441    1.3987 H   0  0  0  0  0  0  0  0  0  0  0  0
   10.8041    0.6488    2.5076 H   0  0  0  0  0  0  0  0  0  0  0  0
   10.1920   -1.2763    0.8680 H   0  0  0  0  0  0  0  0  0  0  0  0
    7.9716   -1.8155    0.7941 H   0  0  0  0  0  0  0  0  0  0  0  0
    4.8804   -1.2704    4.7421 H   0  0  0  0  0  0  0  0  0  0  0  0
    6.7041   -2.1080    4.7587 H   0  0  0  0  0  0  0  0  0  0  0  0
    8.8029   -0.0039    4.0799 H   0  0  0  0  0  0  0  0  0  0  0  0
    9.9818   -2.0883    5.0430 H   0  0  0  0  0  0  0  0  0  0  0  0
    9.8087   -3.7909    3.5601 H   0  0  0  0  0  0  0  0  0  0  0  0
    8.3143   -4.7846    2.5761 H   0  0  0  0  0  0  0  0  0  0  0  0
    6.6509   -4.7270    1.3727 H   0  0  0  0  0  0  0  0  0  0  0  0
    6.2020   -2.6708    0.1886 H   0  0  0  0  0  0  0  0  0  0  0  0
  1  2  1  0  0  0  0
  1 30  1  0  0  0  0
  1 31  1  0  0  0  0
  1 32  1  0  0  0  0
  2  3  1  0  0  0  0
  2 29  2  3  0  0  0
  3  4  2  3  0  0  0
  4  5  1  0  0  0  0
  4 21  1  0  0  0  0
  5  6  1  0  0  0  0
  5 33  1  0  0  0  0
  5 34  1  0  0  0  0
  6  7  1  0  0  0  0
  6 35  1  0  0  0  0
  6 36  1  0  0  0  0
  7  8  1  0  0  0  0
  7 37  1  0  0  0  0
  7 38  1  0  0  0  0
  8  9  1  0  0  0  0
  8 39  1  0  0  0  0
  8 40  1  0  0  0  0
  9 10  1  0  0  0  0
  9 41  1  0  0  0  0
  9 42  1  0  0  0  0
 10 11  1  0  0  0  0
 10 43  1  0  0  0  0
 10 44  1  0  0  0  0
 11 12  1  0  0  0  0
 11 45  1  0  0  0  0
 11 46  1  0  0  0  0
 12 13  1  0  0  0  0
 12 47  1  0  0  0  0
 12 48  1  0  0  0  0
 13 14  1  0  0  0  0
 13 20  2  0  0  0  0
 14 15  2  0  0  0  0
 14 49  1  0  0  0  0
 15 16  1  0  0  0  0
 15 50  1  0  0  0  0
 16 17  2  0  0  0  0
 16 51  1  0  0  0  0
 17 18  1  0  0  0  0
 17 52  1  0  0  0  0
 18 19  2  0  0  0  0
 18 53  1  0  0  0  0
 19 20  1  0  0  0  0
 19 54  1  0  0  0  0
 20 22  1  0  0  0  0
 21 22  2  3  0  0  0
 21 55  1  0  0  0  0
 22 23  1  0  0  0  0
 23 24  2  3  0  0  0
 23 56  1  0  0  0  0
 24 25  1  0  0  0  0
 24 57  1  0  0  0  0
 25 26  2  3  0  0  0
 25 58  1  0  0  0  0
 26 27  1  0  0  0  0
 26 59  1  0  0  0  0
 27 28  2  3  0  0  0
 27 60  1  0  0  0  0
 28 29  1  0  0  0  0
 28 61  1  0  0  0  0
 29 62  1  0  0  0  0
M  END
$$$$
