
 OpenBabel04232216423D

 14 14  0  0  0  0  0  0  0  0999 V2000
   -1.8065    0.0739   -0.0030 C   0  0  0  0  0  0  0  0  0  0  0  0
   -1.1934   -1.1726   -0.0007 C   0  0  0  0  0  0  0  0  0  0  0  0
    0.1968   -1.2498    0.0033 C   0  0  0  0  0  0  0  0  0  0  0  0
    0.9351   -0.0697    0.0026 C   0  0  0  0  0  0  0  0  0  0  0  0
    2.4335   -0.0987   -0.0018 C   0  0  0  0  0  0  0  0  0  0  0  0
    0.3521    1.1532    0.0026 N   0  0  0  0  0  0  0  0  0  0  0  0
   -0.9984    1.1978    0.0004 C   0  0  0  0  0  0  0  0  0  0  0  0
   -2.8862    0.1684   -0.0072 H   0  0  0  0  0  0  0  0  0  0  0  0
   -1.7922   -2.0787   -0.0029 H   0  0  0  0  0  0  0  0  0  0  0  0
    0.6889   -2.2167    0.0049 H   0  0  0  0  0  0  0  0  0  0  0  0
    2.8202   -1.1227   -0.0041 H   0  0  0  0  0  0  0  0  0  0  0  0
    2.8184    0.4097    0.8877 H   0  0  0  0  0  0  0  0  0  0  0  0
    2.8116    0.4103   -0.8939 H   0  0  0  0  0  0  0  0  0  0  0  0
   -1.4272    2.1953    0.0004 H   0  0  0  0  0  0  0  0  0  0  0  0
  1  2  1  0  0  0  0
  1  7  2  0  0  0  0
  1  8  1  0  0  0  0
  2  3  2  0  0  0  0
  2  9  1  0  0  0  0
  3  4  1  0  0  0  0
  3 10  1  0  0  0  0
  4  5  1  0  0  0  0
  4  6  2  0  0  0  0
  5 11  1  0  0  0  0
  5 12  1  0  0  0  0
  5 13  1  0  0  0  0
  6  7  1  0  0  0  0
  7 14  1  0  0  0  0
M  END
$$$$
