
 OpenBabel04232216483D

 51 51  0  0  0  0  0  0  0  0999 V2000
    5.9078    0.6034    1.4828 C   0  0  0  0  0  0  0  0  0  0  0  0
    6.5154   -0.8000    1.7056 C   0  0  0  0  0  0  0  0  0  0  0  0
    5.4873   -1.6800    1.5947 C   0  0  0  0  0  0  0  0  0  0  0  0
    5.1229   -2.1958    0.2715 C   0  0  0  0  0  0  0  0  0  0  0  0
    5.3713   -3.5313    0.1484 C   0  0  0  0  0  0  0  0  0  0  0  0
    4.3822   -4.5261    0.7273 C   0  0  0  0  0  0  0  0  0  0  0  0
    2.9458   -4.3096    0.2402 C   0  0  0  0  0  0  0  0  0  0  0  0
    2.8098   -4.5325   -1.2705 C   0  0  0  0  0  0  0  0  0  0  0  0
    1.3580   -4.4341   -1.7551 C   0  0  0  0  0  0  0  0  0  0  0  0
    0.7892   -3.0331   -1.5500 C   0  0  0  0  0  0  0  0  0  0  0  0
    1.2856   -4.8275   -3.2300 C   0  0  0  0  0  0  0  0  0  0  0  0
    6.8208   -3.8542    0.3079 C   0  0  0  0  0  0  0  0  0  0  0  0
    7.3712   -5.1707   -0.1954 C   0  0  0  0  0  0  0  0  0  0  0  0
    8.5384   -4.8530   -1.0959 C   0  0  0  0  0  0  0  0  0  0  0  0
    9.7396   -5.3925   -0.8327 C   0  0  0  0  0  0  0  0  0  0  0  0
   10.7653   -4.3907   -0.5038 C   0  0  0  0  0  0  0  0  0  0  0  0
   11.1735   -4.4591    0.7726 C   0  0  0  0  0  0  0  0  0  0  0  0
   10.6674   -3.6680    1.9123 C   0  0  0  0  0  0  0  0  0  0  0  0
    9.7383   -2.7106    2.1620 C   0  0  0  0  0  0  0  0  0  0  0  0
    9.0944   -1.6892    1.3229 C   0  0  0  0  0  0  0  0  0  0  0  0
    7.9395   -0.9598    1.2141 C   0  0  0  0  0  0  0  0  0  0  0  0
    4.8222    0.5536    1.2726 H   0  0  0  0  0  0  0  0  0  0  0  0
    6.3159    1.0660    0.5788 H   0  0  0  0  0  0  0  0  0  0  0  0
    6.0200    1.2568    2.3448 H   0  0  0  0  0  0  0  0  0  0  0  0
    4.5278   -1.4452    2.0756 H   0  0  0  0  0  0  0  0  0  0  0  0
    5.6152   -1.5782   -0.5031 H   0  0  0  0  0  0  0  0  0  0  0  0
    4.4147   -4.4476    1.8185 H   0  0  0  0  0  0  0  0  0  0  0  0
    4.6848   -5.5445    0.4687 H   0  0  0  0  0  0  0  0  0  0  0  0
    2.6106   -3.3012    0.5095 H   0  0  0  0  0  0  0  0  0  0  0  0
    2.2890   -5.0081    0.7713 H   0  0  0  0  0  0  0  0  0  0  0  0
    3.2011   -5.5267   -1.5202 H   0  0  0  0  0  0  0  0  0  0  0  0
    3.4235   -3.8065   -1.8193 H   0  0  0  0  0  0  0  0  0  0  0  0
    0.7444   -5.1429   -1.1856 H   0  0  0  0  0  0  0  0  0  0  0  0
    1.4152   -2.2795   -2.0364 H   0  0  0  0  0  0  0  0  0  0  0  0
    0.7156   -2.7796   -0.4883 H   0  0  0  0  0  0  0  0  0  0  0  0
   -0.2171   -2.9603   -1.9694 H   0  0  0  0  0  0  0  0  0  0  0  0
    1.8714   -4.1466   -3.8579 H   0  0  0  0  0  0  0  0  0  0  0  0
    0.2507   -4.8157   -3.5876 H   0  0  0  0  0  0  0  0  0  0  0  0
    1.6814   -5.8397   -3.3649 H   0  0  0  0  0  0  0  0  0  0  0  0
    7.0447   -3.7780    1.3828 H   0  0  0  0  0  0  0  0  0  0  0  0
    7.3562   -3.0344   -0.1769 H   0  0  0  0  0  0  0  0  0  0  0  0
    6.6305   -5.7854   -0.6966 H   0  0  0  0  0  0  0  0  0  0  0  0
    7.7183   -5.6953    0.7060 H   0  0  0  0  0  0  0  0  0  0  0  0
    8.5202   -3.8595   -1.5493 H   0  0  0  0  0  0  0  0  0  0  0  0
    9.7707   -6.3415   -0.2935 H   0  0  0  0  0  0  0  0  0  0  0  0
   10.5940   -3.4166   -0.9552 H   0  0  0  0  0  0  0  0  0  0  0  0
   11.4102   -5.4785    1.1233 H   0  0  0  0  0  0  0  0  0  0  0  0
   11.1243   -4.1152    2.8073 H   0  0  0  0  0  0  0  0  0  0  0  0
    9.6099   -2.5123    3.2274 H   0  0  0  0  0  0  0  0  0  0  0  0
    9.8828   -1.3172    0.6588 H   0  0  0  0  0  0  0  0  0  0  0  0
    8.1008   -0.1510    0.4963 H   0  0  0  0  0  0  0  0  0  0  0  0
  1  2  1  0  0  0  0
  1 22  1  0  0  0  0
  1 23  1  0  0  0  0
  1 24  1  0  0  0  0
  2  3  2  3  0  0  0
  2 21  1  0  0  0  0
  3  4  1  0  0  0  0
  3 25  1  0  0  0  0
  4  5  2  3  0  0  0
  4 26  1  0  0  0  0
  5  6  1  0  0  0  0
  5 12  1  0  0  0  0
  6  7  1  0  0  0  0
  6 27  1  0  0  0  0
  6 28  1  0  0  0  0
  7  8  1  0  0  0  0
  7 29  1  0  0  0  0
  7 30  1  0  0  0  0
  8  9  1  0  0  0  0
  8 31  1  0  0  0  0
  8 32  1  0  0  0  0
  9 10  1  0  0  0  0
  9 11  1  0  0  0  0
  9 33  1  0  0  0  0
 10 34  1  0  0  0  0
 10 35  1  0  0  0  0
 10 36  1  0  0  0  0
 11 37  1  0  0  0  0
 11 38  1  0  0  0  0
 11 39  1  0  0  0  0
 12 13  1  0  0  0  0
 12 40  1  0  0  0  0
 12 41  1  0  0  0  0
 13 14  1  0  0  0  0
 13 42  1  0  0  0  0
 13 43  1  0  0  0  0
 14 15  2  3  0  0  0
 14 44  1  0  0  0  0
 15 16  1  0  0  0  0
 15 45  1  0  0  0  0
 16 17  2  3  0  0  0
 16 46  1  0  0  0  0
 17 18  1  0  0  0  0
 17 47  1  0  0  0  0
 18 19  2  3  0  0  0
 18 48  1  0  0  0  0
 19 20  1  0  0  0  0
 19 49  1  0  0  0  0
 20 21  2  3  0  0  0
 20 50  1  0  0  0  0
 21 51  1  0  0  0  0
M  END
$$$$
