
 OpenBabel04232216453D

 37 38  0  0  0  0  0  0  0  0999 V2000
    2.8694   -0.8377   -1.7299 C   0  0  0  0  0  0  0  0  0  0  0  0
    4.1205   -0.1655   -2.2482 C   0  0  0  0  0  0  0  0  0  0  0  0
    4.2459    1.2178   -1.8246 C   0  0  0  0  0  0  0  0  0  0  0  0
    5.0729    1.6660   -0.8552 C   0  0  0  0  0  0  0  0  0  0  0  0
    5.6650    0.7699    0.2256 C   0  0  0  0  0  0  0  0  0  0  0  0
    5.4051    1.2180    1.6313 C   0  0  0  0  0  0  0  0  0  0  0  0
    4.8679    0.4283    2.5729 C   0  0  0  0  0  0  0  0  0  0  0  0
    5.6418    3.0604   -1.0816 C   0  0  0  0  0  0  0  0  0  0  0  0
    7.1849    3.0363   -1.0527 C   0  0  0  0  0  0  0  0  0  0  0  0
    7.8364    3.1822   -0.0253 O   0  0  0  0  0  0  0  0  0  0  0  0
    7.8496    2.6153   -2.3224 C   0  0  0  0  0  0  0  0  0  0  0  0
    8.1789    1.3017   -2.3628 C   0  0  0  0  0  0  0  0  0  0  0  0
    7.4144    0.5327   -3.3831 C   0  0  0  0  0  0  0  0  0  0  0  0
    7.6659    1.0839   -4.7664 C   0  0  0  0  0  0  0  0  0  0  0  0
    7.8781    2.6076   -4.8633 C   0  0  0  0  0  0  0  0  0  0  0  0
    7.5431    3.3195   -3.5854 C   0  0  0  0  0  0  0  0  0  0  0  0
    7.1259    4.4748   -3.5633 O   0  0  0  0  0  0  0  0  0  0  0  0
    6.5064   -0.2787   -2.7951 C   0  0  0  0  0  0  0  0  0  0  0  0
    5.1299   -0.7598   -2.9576 C   0  0  0  0  0  0  0  0  0  0  0  0
    1.9593   -0.4339   -2.1853 H   0  0  0  0  0  0  0  0  0  0  0  0
    2.7819   -0.6710   -0.6433 H   0  0  0  0  0  0  0  0  0  0  0  0
    2.8832   -1.9238   -1.8647 H   0  0  0  0  0  0  0  0  0  0  0  0
    3.7894    1.9105   -2.5334 H   0  0  0  0  0  0  0  0  0  0  0  0
    6.7490    0.6934    0.1085 H   0  0  0  0  0  0  0  0  0  0  0  0
    5.2930   -0.2569    0.1172 H   0  0  0  0  0  0  0  0  0  0  0  0
    5.7622    2.2064    1.9115 H   0  0  0  0  0  0  0  0  0  0  0  0
    4.5370   -0.5837    2.3558 H   0  0  0  0  0  0  0  0  0  0  0  0
    4.7711    0.7732    3.5974 H   0  0  0  0  0  0  0  0  0  0  0  0
    5.2549    3.8023   -0.3794 H   0  0  0  0  0  0  0  0  0  0  0  0
    5.3461    3.4104   -2.0781 H   0  0  0  0  0  0  0  0  0  0  0  0
    8.3704    0.7853   -1.4300 H   0  0  0  0  0  0  0  0  0  0  0  0
    6.9297    0.7516   -5.5008 H   0  0  0  0  0  0  0  0  0  0  0  0
    8.6202    0.6377   -5.0933 H   0  0  0  0  0  0  0  0  0  0  0  0
    7.2606    3.0272   -5.6622 H   0  0  0  0  0  0  0  0  0  0  0  0
    8.9258    2.8456   -5.1032 H   0  0  0  0  0  0  0  0  0  0  0  0
    6.7429   -0.5583   -1.7691 H   0  0  0  0  0  0  0  0  0  0  0  0
    5.0255   -1.7978   -3.2508 H   0  0  0  0  0  0  0  0  0  0  0  0
  1  2  1  0  0  0  0
  1 20  1  0  0  0  0
  1 21  1  0  0  0  0
  1 22  1  0  0  0  0
  2  3  1  0  0  0  0
  2 19  2  3  0  0  0
  3  4  2  3  0  0  0
  3 23  1  0  0  0  0
  4  5  1  0  0  0  0
  4  8  1  0  0  0  0
  5  6  1  0  0  0  0
  5 24  1  0  0  0  0
  5 25  1  0  0  0  0
  6  7  2  0  0  0  0
  6 26  1  0  0  0  0
  7 27  1  0  0  0  0
  7 28  1  0  0  0  0
  8  9  1  0  0  0  0
  8 29  1  0  0  0  0
  8 30  1  0  0  0  0
  9 10  2  0  0  0  0
  9 11  1  0  0  0  0
 11 12  2  0  0  0  0
 11 16  1  0  0  0  0
 12 13  1  0  0  0  0
 12 31  1  0  0  0  0
 13 14  1  0  0  0  0
 13 18  2  3  0  0  0
 14 15  1  0  0  0  0
 14 32  1  0  0  0  0
 14 33  1  0  0  0  0
 15 16  1  0  0  0  0
 15 34  1  0  0  0  0
 15 35  1  0  0  0  0
 16 17  2  0  0  0  0
 18 19  1  0  0  0  0
 18 36  1  0  0  0  0
 19 37  1  0  0  0  0
M  END
$$$$
