
 OpenBabel04232216473D

 54 56  0  0  0  0  0  0  0  0999 V2000
    0.0398   -3.4868    0.0912 C   0  0  0  0  0  0  0  0  0  0  0  0
    1.4936   -4.2341   -0.2213 C   0  0  0  0  0  0  0  0  0  0  0  0
    2.0896   -2.6590   -0.3392 C   0  0  0  0  0  0  0  0  0  0  0  0
    2.8655   -1.8952    0.5058 C   0  0  0  0  0  0  0  0  0  0  0  0
    3.7605   -2.6903    1.0871 C   0  0  0  0  0  0  0  0  0  0  0  0
    5.2390   -1.8435    0.8053 C   0  0  0  0  0  0  0  0  0  0  0  0
    3.4150   -4.3508    0.9025 C   0  0  0  0  0  0  0  0  0  0  0  0
    4.9156   -4.3201    0.2507 C   0  0  0  0  0  0  0  0  0  0  0  0
    4.6925   -5.6766   -0.0090 C   0  0  0  0  0  0  0  0  0  0  0  0
    5.7563   -6.5332   -0.3381 C   0  0  0  0  0  0  0  0  0  0  0  0
    4.7342   -7.5394   -0.7198 C   0  0  0  0  0  0  0  0  0  0  0  0
    3.4057   -7.9115   -0.6434 C   0  0  0  0  0  0  0  0  0  0  0  0
    3.2097   -8.7827   -1.7959 C   0  0  0  0  0  0  0  0  0  0  0  0
    4.0744   -9.7953   -1.9681 C   0  0  0  0  0  0  0  0  0  0  0  0
    4.2539  -10.7057   -0.8143 C   0  0  0  0  0  0  0  0  0  0  0  0
    4.4737  -11.9343   -1.2555 C   0  0  0  0  0  0  0  0  0  0  0  0
    3.5822  -12.4866   -2.2270 C   0  0  0  0  0  0  0  0  0  0  0  0
    3.5855  -13.8218   -2.3029 C   0  0  0  0  0  0  0  0  0  0  0  0
    2.2340  -14.2876   -2.1136 C   0  0  0  0  0  0  0  0  0  0  0  0
    1.8929  -13.8928   -0.8548 C   0  0  0  0  0  0  0  0  0  0  0  0
    0.7518  -12.6990   -0.6065 C   0  0  0  0  0  0  0  0  0  0  0  0
   -0.3049  -14.2451   -0.8408 C   0  0  0  0  0  0  0  0  0  0  0  0
    0.8123  -11.0689   -0.2295 C   0  0  0  0  0  0  0  0  0  0  0  0
    1.2441   -9.0774    0.0881 C   0  0  0  0  0  0  0  0  0  0  0  0
    2.0536   -7.4885    0.1593 C   0  0  0  0  0  0  0  0  0  0  0  0
    2.1559   -5.5248    0.4242 C   0  0  0  0  0  0  0  0  0  0  0  0
    0.0801   -2.3267    0.1272 H   0  0  0  0  0  0  0  0  0  0  0  0
    0.0143   -3.2645    1.1707 H   0  0  0  0  0  0  0  0  0  0  0  0
   -0.3190   -3.2050   -0.9140 H   0  0  0  0  0  0  0  0  0  0  0  0
    1.6054   -1.9978   -1.0711 H   0  0  0  0  0  0  0  0  0  0  0  0
    3.0428   -0.8123    0.3986 H   0  0  0  0  0  0  0  0  0  0  0  0
    5.0885   -0.7456    0.8427 H   0  0  0  0  0  0  0  0  0  0  0  0
    5.6077   -1.9539   -0.2412 H   0  0  0  0  0  0  0  0  0  0  0  0
    6.0621   -2.0562    1.4978 H   0  0  0  0  0  0  0  0  0  0  0  0
    5.7238   -4.1258    0.9560 H   0  0  0  0  0  0  0  0  0  0  0  0
    4.9690   -3.7570   -0.6946 H   0  0  0  0  0  0  0  0  0  0  0  0
    4.0124   -5.5640   -0.8880 H   0  0  0  0  0  0  0  0  0  0  0  0
    4.4071   -6.0939    0.9711 H   0  0  0  0  0  0  0  0  0  0  0  0
    6.4241   -6.6767    0.5153 H   0  0  0  0  0  0  0  0  0  0  0  0
    6.2957   -6.1207   -1.2057 H   0  0  0  0  0  0  0  0  0  0  0  0
    5.2653   -7.8629   -1.5952 H   0  0  0  0  0  0  0  0  0  0  0  0
    2.2462   -8.7197   -2.2856 H   0  0  0  0  0  0  0  0  0  0  0  0
    5.1538   -9.5691   -1.9224 H   0  0  0  0  0  0  0  0  0  0  0  0
    3.3680  -10.5620   -0.2153 H   0  0  0  0  0  0  0  0  0  0  0  0
    5.4507  -12.3660   -1.1419 H   0  0  0  0  0  0  0  0  0  0  0  0
    2.6444  -11.9373   -2.4401 H   0  0  0  0  0  0  0  0  0  0  0  0
    4.3837  -14.3810   -1.8216 H   0  0  0  0  0  0  0  0  0  0  0  0
    1.6624  -14.0334   -3.0268 H   0  0  0  0  0  0  0  0  0  0  0  0
    1.8793  -14.8883   -0.2963 H   0  0  0  0  0  0  0  0  0  0  0  0
   -1.3673  -14.2524   -1.0366 H   0  0  0  0  0  0  0  0  0  0  0  0
   -0.1207  -15.0571   -0.0699 H   0  0  0  0  0  0  0  0  0  0  0  0
    0.0333  -14.8739   -1.7197 H   0  0  0  0  0  0  0  0  0  0  0  0
    1.8165  -11.3273    0.0900 H   0  0  0  0  0  0  0  0  0  0  0  0
    1.9394   -9.6248    0.9016 H   0  0  0  0  0  0  0  0  0  0  0  0
  1  2  1  0  0  0  0
  1 27  1  0  0  0  0
  1 28  1  0  0  0  0
  1 29  1  0  0  0  0
  2  3  1  0  0  0  0
  2 26  2  0  0  0  0
  3  4  2  0  0  0  0
  3 30  1  0  0  0  0
  4  5  1  0  0  0  0
  4 31  1  0  0  0  0
  5  6  1  0  0  0  0
  5  7  2  0  0  0  0
  6 32  1  0  0  0  0
  6 33  1  0  0  0  0
  6 34  1  0  0  0  0
  7  8  1  0  0  0  0
  7 26  1  0  0  0  0
  8  9  1  0  0  0  0
  8 35  1  0  0  0  0
  8 36  1  0  0  0  0
  9 10  1  0  0  0  0
  9 37  1  0  0  0  0
  9 38  1  0  0  0  0
 10 11  1  0  0  0  0
 10 39  1  0  0  0  0
 10 40  1  0  0  0  0
 11 12  2  0  0  0  0
 11 41  1  0  0  0  0
 12 13  1  0  0  0  0
 12 25  1  0  0  0  0
 13 14  2  3  0  0  0
 13 42  1  0  0  0  0
 14 15  1  0  0  0  0
 14 43  1  0  0  0  0
 15 16  2  3  0  0  0
 15 44  1  0  0  0  0
 16 17  1  0  0  0  0
 16 45  1  0  0  0  0
 17 18  2  3  0  0  0
 17 46  1  0  0  0  0
 18 19  1  0  0  0  0
 18 47  1  0  0  0  0
 19 20  2  3  0  0  0
 19 48  1  0  0  0  0
 20 21  1  0  0  0  0
 20 49  1  0  0  0  0
 21 22  1  0  0  0  0
 21 23  2  3  0  0  0
 22 50  1  0  0  0  0
 22 51  1  0  0  0  0
 22 52  1  0  0  0  0
 23 24  1  0  0  0  0
 23 53  1  0  0  0  0
 24 25  2  3  0  0  0
 24 54  1  0  0  0  0
 25 26  1  0  0  0  0
M  END
$$$$
