
 OpenBabel04232217023D

 88 87  0  0  0  0  0  0  0  0999 V2000
   12.7904   11.5939    3.0641 O   0  0  0  0  0  0  0  0  0  0  0  0
   12.2251   10.6101    2.1611 O   0  0  0  0  0  0  0  0  0  0  0  0
   12.8340    9.1046    2.4962 S   0  0  0  0  0  0  0  0  0  0  0  0
   12.1184    8.8750    4.4261 S   0  0  0  0  0  0  0  0  0  0  0  0
   10.3151    8.9772    4.2176 C   0  0  0  0  0  0  0  0  0  0  0  0
    9.7801    7.8466    3.2898 C   0  0  0  0  0  0  0  0  0  0  0  0
   10.0320    6.4508    3.7355 N   0  0  0  0  0  0  0  0  0  0  0  0
    9.3889    5.9649    5.1983 S   0  0  0  0  0  0  0  0  0  0  0  0
   10.0139    4.0187    5.4002 S   0  0  0  0  0  0  0  0  0  0  0  0
   12.0827    4.0055    5.4411 S   0  0  0  0  0  0  0  0  0  0  0  0
   12.7731    5.1463    7.0362 S   0  0  0  0  0  0  0  0  0  0  0  0
   14.8785    5.1365    6.9909 S   0  0  0  0  0  0  0  0  0  0  0  0
   15.5806    6.3245    8.5849 S   0  0  0  0  0  0  0  0  0  0  0  0
   17.6898    6.3143    8.5723 S   0  0  0  0  0  0  0  0  0  0  0  0
   18.3811    7.5066   10.1707 S   0  0  0  0  0  0  0  0  0  0  0  0
   20.4909    7.4994   10.1611 S   0  0  0  0  0  0  0  0  0  0  0  0
   21.1817    8.6913   11.7591 S   0  0  0  0  0  0  0  0  0  0  0  0
   23.2914    8.6835   11.7487 S   0  0  0  0  0  0  0  0  0  0  0  0
   23.9822    9.8753   13.3465 S   0  0  0  0  0  0  0  0  0  0  0  0
   26.0917    9.8674   13.3359 S   0  0  0  0  0  0  0  0  0  0  0  0
   26.7823   11.0591   14.9336 S   0  0  0  0  0  0  0  0  0  0  0  0
   28.8917   11.0511   14.9230 S   0  0  0  0  0  0  0  0  0  0  0  0
   29.5823   12.2428   16.5207 S   0  0  0  0  0  0  0  0  0  0  0  0
   31.6917   12.2349   16.5101 S   0  0  0  0  0  0  0  0  0  0  0  0
   32.3823   13.4265   18.1077 S   0  0  0  0  0  0  0  0  0  0  0  0
   34.4917   13.4186   18.0971 S   0  0  0  0  0  0  0  0  0  0  0  0
   35.1823   14.6103   19.6948 S   0  0  0  0  0  0  0  0  0  0  0  0
   37.2917   14.6023   19.6842 S   0  0  0  0  0  0  0  0  0  0  0  0
   37.9823   15.7940   21.2819 S   0  0  0  0  0  0  0  0  0  0  0  0
   40.0917   15.7861   21.2713 S   0  0  0  0  0  0  0  0  0  0  0  0
   40.7823   16.9777   22.8689 S   0  0  0  0  0  0  0  0  0  0  0  0
   42.8917   16.9698   22.8583 S   0  0  0  0  0  0  0  0  0  0  0  0
   43.5823   18.1615   24.4560 S   0  0  0  0  0  0  0  0  0  0  0  0
   45.6917   18.1536   24.4454 S   0  0  0  0  0  0  0  0  0  0  0  0
   46.3823   19.3452   26.0431 S   0  0  0  0  0  0  0  0  0  0  0  0
   48.4917   19.3373   26.0325 S   0  0  0  0  0  0  0  0  0  0  0  0
   49.1823   20.5289   27.6301 S   0  0  0  0  0  0  0  0  0  0  0  0
   51.2917   20.5210   27.6195 S   0  0  0  0  0  0  0  0  0  0  0  0
   51.9823   21.7127   29.2172 S   0  0  0  0  0  0  0  0  0  0  0  0
   54.0917   21.7048   29.2066 S   0  0  0  0  0  0  0  0  0  0  0  0
   54.7823   22.8964   30.8043 S   0  0  0  0  0  0  0  0  0  0  0  0
   56.8916   22.8885   30.7937 S   0  0  0  0  0  0  0  0  0  0  0  0
   57.5823   24.0801   32.3914 S   0  0  0  0  0  0  0  0  0  0  0  0
   59.6916   24.0722   32.3807 S   0  0  0  0  0  0  0  0  0  0  0  0
   60.3823   25.2639   33.9784 S   0  0  0  0  0  0  0  0  0  0  0  0
   62.4916   25.2560   33.9678 S   0  0  0  0  0  0  0  0  0  0  0  0
   63.1823   26.4476   35.5655 S   0  0  0  0  0  0  0  0  0  0  0  0
   65.2916   26.4397   35.5549 S   0  0  0  0  0  0  0  0  0  0  0  0
   65.9822   27.6313   37.1526 S   0  0  0  0  0  0  0  0  0  0  0  0
   68.0916   27.6234   37.1419 S   0  0  0  0  0  0  0  0  0  0  0  0
   68.7822   28.8151   38.7396 S   0  0  0  0  0  0  0  0  0  0  0  0
   70.8916   28.8072   38.7290 S   0  0  0  0  0  0  0  0  0  0  0  0
   71.5822   29.9988   40.3267 S   0  0  0  0  0  0  0  0  0  0  0  0
   73.6916   29.9909   40.3161 S   0  0  0  0  0  0  0  0  0  0  0  0
   74.3822   31.1826   41.9138 S   0  0  0  0  0  0  0  0  0  0  0  0
   76.4916   31.1746   41.9031 S   0  0  0  0  0  0  0  0  0  0  0  0
   77.1822   32.3663   43.5008 S   0  0  0  0  0  0  0  0  0  0  0  0
   79.2915   32.3584   43.4902 S   0  0  0  0  0  0  0  0  0  0  0  0
   79.9822   33.5500   45.0878 S   0  0  0  0  0  0  0  0  0  0  0  0
   82.0915   33.5418   45.0769 S   0  0  0  0  0  0  0  0  0  0  0  0
   82.7820   34.7333   46.6743 S   0  0  0  0  0  0  0  0  0  0  0  0
   84.8915   34.7263   46.6650 S   0  0  0  0  0  0  0  0  0  0  0  0
   85.5788   35.9191   48.2642 S   0  0  0  0  0  0  0  0  0  0  0  0
   87.6877   35.9140   48.2573 S   0  0  0  0  0  0  0  0  0  0  0  0
   88.3790   37.1057   49.8551 S   0  0  0  0  0  0  0  0  0  0  0  0
   90.4887   37.0956   49.8416 S   0  0  0  0  0  0  0  0  0  0  0  0
   91.1822   38.2864   51.4380 S   0  0  0  0  0  0  0  0  0  0  0  0
   93.2915   38.2780   51.4268 S   0  0  0  0  0  0  0  0  0  0  0  0
   93.9819   39.4697   53.0245 S   0  0  0  0  0  0  0  0  0  0  0  0
   96.0910   39.4614   53.0134 S   0  0  0  0  0  0  0  0  0  0  0  0
   96.7816   40.6527   54.6106 S   0  0  0  0  0  0  0  0  0  0  0  0
   98.8908   40.6443   54.5994 S   0  0  0  0  0  0  0  0  0  0  0  0
   99.5808   41.8356   56.1966 S   0  0  0  0  0  0  0  0  0  0  0  0
  101.6885   41.8269   56.1850 S   0  0  0  0  0  0  0  0  0  0  0  0
  102.3760   43.0172   57.7810 S   0  0  0  0  0  0  0  0  0  0  0  0
  104.4796   43.0063   57.7658 S   0  0  0  0  0  0  0  0  0  0  0  0
  105.1604   44.1933   59.3576 S   0  0  0  0  0  0  0  0  0  0  0  0
  107.2504   44.1601   59.3416 S   0  0  0  0  0  0  0  0  0  0  0  0
  107.9192   45.3766   60.8901 S   0  0  0  0  0  0  0  0  0  0  0  0
  109.9948   45.3191   60.8764 S   0  0  0  0  0  0  0  0  0  0  0  0
  110.5812   46.1445   59.0859 S   0  0  0  0  0  0  0  0  0  0  0  0
   12.3092   12.3725    2.6607 H   0  0  0  0  0  0  0  0  0  0  0  0
   10.0462    9.9458    3.8264 H   0  0  0  0  0  0  0  0  0  0  0  0
    9.8396    8.8909    5.2064 H   0  0  0  0  0  0  0  0  0  0  0  0
   10.2177    7.9915    2.2955 H   0  0  0  0  0  0  0  0  0  0  0  0
    8.6990    7.9879    3.1568 H   0  0  0  0  0  0  0  0  0  0  0  0
   11.0445    6.3057    3.7175 H   0  0  0  0  0  0  0  0  0  0  0  0
  111.9242   46.0749   59.1679 H   0  0  0  0  0  0  0  0  0  0  0  0
  1  2  1  0  0  0  0
  1 82  1  0  0  0  0
  2  3  1  0  0  0  0
  3  4  1  0  0  0  0
  4  5  1  0  0  0  0
  5  6  1  0  0  0  0
  5 83  1  0  0  0  0
  5 84  1  0  0  0  0
  6  7  1  0  0  0  0
  6 85  1  0  0  0  0
  6 86  1  0  0  0  0
  7  8  1  0  0  0  0
  7 87  1  0  0  0  0
  8  9  1  0  0  0  0
  9 10  1  0  0  0  0
 10 11  1  0  0  0  0
 11 12  1  0  0  0  0
 12 13  1  0  0  0  0
 13 14  1  0  0  0  0
 14 15  1  0  0  0  0
 15 16  1  0  0  0  0
 16 17  1  0  0  0  0
 17 18  1  0  0  0  0
 18 19  1  0  0  0  0
 19 20  1  0  0  0  0
 20 21  1  0  0  0  0
 21 22  1  0  0  0  0
 22 23  1  0  0  0  0
 23 24  1  0  0  0  0
 24 25  1  0  0  0  0
 25 26  1  0  0  0  0
 26 27  1  0  0  0  0
 27 28  1  0  0  0  0
 28 29  1  0  0  0  0
 29 30  1  0  0  0  0
 30 31  1  0  0  0  0
 31 32  1  0  0  0  0
 32 33  1  0  0  0  0
 33 34  1  0  0  0  0
 34 35  1  0  0  0  0
 35 36  1  0  0  0  0
 36 37  1  0  0  0  0
 37 38  1  0  0  0  0
 38 39  1  0  0  0  0
 39 40  1  0  0  0  0
 40 41  1  0  0  0  0
 41 42  1  0  0  0  0
 42 43  1  0  0  0  0
 43 44  1  0  0  0  0
 44 45  1  0  0  0  0
 45 46  1  0  0  0  0
 46 47  1  0  0  0  0
 47 48  1  0  0  0  0
 48 49  1  0  0  0  0
 49 50  1  0  0  0  0
 50 51  1  0  0  0  0
 51 52  1  0  0  0  0
 52 53  1  0  0  0  0
 53 54  1  0  0  0  0
 54 55  1  0  0  0  0
 55 56  1  0  0  0  0
 56 57  1  0  0  0  0
 57 58  1  0  0  0  0
 58 59  1  0  0  0  0
 59 60  1  0  0  0  0
 60 61  1  0  0  0  0
 61 62  1  0  0  0  0
 62 63  1  0  0  0  0
 63 64  1  0  0  0  0
 64 65  1  0  0  0  0
 65 66  1  0  0  0  0
 66 67  1  0  0  0  0
 67 68  1  0  0  0  0
 68 69  1  0  0  0  0
 69 70  1  0  0  0  0
 70 71  1  0  0  0  0
 71 72  1  0  0  0  0
 72 73  1  0  0  0  0
 73 74  1  0  0  0  0
 74 75  1  0  0  0  0
 75 76  1  0  0  0  0
 76 77  1  0  0  0  0
 77 78  1  0  0  0  0
 78 79  1  0  0  0  0
 79 80  1  0  0  0  0
 80 81  1  0  0  0  0
 81 88  1  0  0  0  0
M  END
$$$$
