
 OpenBabel04232216473D

 48 49  0  0  0  0  0  0  0  0999 V2000
    2.5235   -0.0270    0.1615 C   0  0  0  0  0  0  0  0  0  0  0  0
    1.0270    0.0053    0.1221 C   0  0  0  0  0  0  0  0  0  0  0  0
    0.2641    0.0237    1.2945 C   0  0  0  0  0  0  0  0  0  0  0  0
   -1.1307    0.0396    1.2311 C   0  0  0  0  0  0  0  0  0  0  0  0
   -1.7850    0.0328   -0.0058 C   0  0  0  0  0  0  0  0  0  0  0  0
   -3.2923    0.0257   -0.0473 C   0  0  0  0  0  0  0  0  0  0  0  0
   -3.8857    1.4269   -0.0559 C   0  0  0  0  0  0  0  0  0  0  0  0
   -5.4116    1.4059   -0.0872 C   0  0  0  0  0  0  0  0  0  0  0  0
   -5.9081    2.8444   -0.0964 C   0  0  0  0  0  0  0  0  0  0  0  0
   -7.4203    2.9219   -0.1261 C   0  0  0  0  0  0  0  0  0  0  0  0
   -7.8286    4.3737   -0.1474 C   0  0  0  0  0  0  0  0  0  0  0  0
   -7.9468    4.9635   -1.2067 O   0  0  0  0  0  0  0  0  0  0  0  0
   -7.9888    4.9242    1.1262 N   0  0  0  0  0  0  0  0  0  0  0  0
   -8.3550    6.2657    1.2962 C   0  0  0  0  0  0  0  0  0  0  0  0
   -8.5728    6.9590    2.7611 C   0  0  0  0  0  0  0  0  0  0  0  0
   -8.9410    8.3144    2.8132 C   0  0  0  0  0  0  0  0  0  0  0  0
   -9.1441    8.9485    4.1796 C   0  0  0  0  0  0  0  0  0  0  0  0
   -9.0032    8.3210    5.2324 O   0  0  0  0  0  0  0  0  0  0  0  0
   -9.5542   10.4023    4.2300 C   0  0  0  0  0  0  0  0  0  0  0  0
  -11.0647   10.5273    4.2300 C   0  0  0  0  0  0  0  0  0  0  0  0
   -8.5561    7.1129    0.2238 C   0  0  0  0  0  0  0  0  0  0  0  0
   -1.0116    0.0291   -1.1764 C   0  0  0  0  0  0  0  0  0  0  0  0
    0.3801    0.0103   -1.1141 C   0  0  0  0  0  0  0  0  0  0  0  0
    2.8983   -0.0120    1.1883 H   0  0  0  0  0  0  0  0  0  0  0  0
    2.9272    0.8446   -0.3638 H   0  0  0  0  0  0  0  0  0  0  0  0
    2.8857   -0.9398   -0.3230 H   0  0  0  0  0  0  0  0  0  0  0  0
    0.7501    0.0223    2.2669 H   0  0  0  0  0  0  0  0  0  0  0  0
   -1.7065    0.0475    2.1535 H   0  0  0  0  0  0  0  0  0  0  0  0
   -3.6706   -0.5228    0.8255 H   0  0  0  0  0  0  0  0  0  0  0  0
   -3.6277   -0.5208   -0.9362 H   0  0  0  0  0  0  0  0  0  0  0  0
   -3.5259    1.9794   -0.9317 H   0  0  0  0  0  0  0  0  0  0  0  0
   -3.5628    1.9800    0.8351 H   0  0  0  0  0  0  0  0  0  0  0  0
   -5.8033    0.8782    0.7916 H   0  0  0  0  0  0  0  0  0  0  0  0
   -5.7659    0.8776   -0.9815 H   0  0  0  0  0  0  0  0  0  0  0  0
   -5.4926    3.3667   -0.9677 H   0  0  0  0  0  0  0  0  0  0  0  0
   -5.5285    3.3673    0.7891 H   0  0  0  0  0  0  0  0  0  0  0  0
   -7.8585    2.4325    0.7481 H   0  0  0  0  0  0  0  0  0  0  0  0
   -7.8218    2.4396   -1.0256 H   0  0  0  0  0  0  0  0  0  0  0  0
   -7.8496    4.3566    1.9467 H   0  0  0  0  0  0  0  0  0  0  0  0
   -8.4215    6.3274    3.6510 H   0  0  0  0  0  0  0  0  0  0  0  0
   -9.1175   10.9323    3.3788 H   0  0  0  0  0  0  0  0  0  0  0  0
   -9.1398   10.8437    5.1490 H   0  0  0  0  0  0  0  0  0  0  0  0
  -11.4871   10.0866    3.3236 H   0  0  0  0  0  0  0  0  0  0  0  0
  -11.3726   11.5760    4.2767 H   0  0  0  0  0  0  0  0  0  0  0  0
  -11.5040   10.0046    5.0861 H   0  0  0  0  0  0  0  0  0  0  0  0
   -8.8054    8.0859   -0.1832 H   0  0  0  0  0  0  0  0  0  0  0  0
   -1.4702    0.0291   -2.1642 H   0  0  0  0  0  0  0  0  0  0  0  0
    0.9528   -0.0024   -2.0400 H   0  0  0  0  0  0  0  0  0  0  0  0
  1  2  1  0  0  0  0
  1 24  1  0  0  0  0
  1 25  1  0  0  0  0
  1 26  1  0  0  0  0
  2  3  1  0  0  0  0
  2 23  2  0  0  0  0
  3  4  2  0  0  0  0
  3 27  1  0  0  0  0
  4  5  1  0  0  0  0
  4 28  1  0  0  0  0
  5  6  1  0  0  0  0
  5 22  2  0  0  0  0
  6  7  1  0  0  0  0
  6 29  1  0  0  0  0
  6 30  1  0  0  0  0
  7  8  1  0  0  0  0
  7 31  1  0  0  0  0
  7 32  1  0  0  0  0
  8  9  1  0  0  0  0
  8 33  1  0  0  0  0
  8 34  1  0  0  0  0
  9 10  1  0  0  0  0
  9 35  1  0  0  0  0
  9 36  1  0  0  0  0
 10 11  1  0  0  0  0
 10 37  1  0  0  0  0
 10 38  1  0  0  0  0
 11 12  2  0  0  0  0
 11 13  1  0  0  0  0
 13 14  1  0  0  0  0
 13 39  1  0  0  0  0
 14 15  1  0  0  0  0
 14 21  2  0  0  0  0
 15 16  2  0  0  0  0
 15 40  1  0  0  0  0
 16 17  1  0  0  0  0
 16 21  1  0  0  0  0
 17 18  2  0  0  0  0
 17 19  1  0  0  0  0
 19 20  1  0  0  0  0
 19 41  1  0  0  0  0
 19 42  1  0  0  0  0
 20 43  1  0  0  0  0
 20 44  1  0  0  0  0
 20 45  1  0  0  0  0
 21 46  1  0  0  0  0
 22 23  1  0  0  0  0
 22 47  1  0  0  0  0
 23 48  1  0  0  0  0
M  END
$$$$
