
 OpenBabel04232216403D

209208  0  0  0  0  0  0  0  0999 V2000
    1.5679   -0.4755   -0.8957 C   0  0  0  0  0  0  0  0  0  0  0  0
    2.4202   -0.0844    0.0568 C   0  0  0  0  0  0  0  0  0  0  0  0
    3.1922   -1.0645    0.8828 C   0  0  0  0  0  0  0  0  0  0  0  0
    4.6957   -0.8690    0.7157 C   0  0  0  0  0  0  0  0  0  0  0  0
    5.4345   -1.8422    1.5358 N   0  0  0  0  0  0  0  0  0  0  0  0
    6.8160   -1.6325    1.3570 N   0  0  0  0  0  0  0  0  0  0  0  0
    7.5307   -2.5666    2.1466 N   0  0  0  0  0  0  0  0  0  0  0  0
    8.9081   -2.3694    1.9809 N   0  0  0  0  0  0  0  0  0  0  0  0
    9.6163   -3.3007    2.7683 N   0  0  0  0  0  0  0  0  0  0  0  0
   11.0165   -3.1154    2.6149 N   0  0  0  0  0  0  0  0  0  0  0  0
   11.7262   -4.0485    3.4012 N   0  0  0  0  0  0  0  0  0  0  0  0
   13.1277   -3.8562    3.2446 N   0  0  0  0  0  0  0  0  0  0  0  0
   13.8426   -4.7879    4.0322 N   0  0  0  0  0  0  0  0  0  0  0  0
   15.2324   -4.5932    3.8710 N   0  0  0  0  0  0  0  0  0  0  0  0
   15.9345   -5.5236    4.6575 N   0  0  0  0  0  0  0  0  0  0  0  0
   17.3266   -5.3281    4.4933 N   0  0  0  0  0  0  0  0  0  0  0  0
   18.0549   -6.2616    5.2849 N   0  0  0  0  0  0  0  0  0  0  0  0
   19.4509   -6.0726    5.1283 N   0  0  0  0  0  0  0  0  0  0  0  0
   20.1516   -7.0041    5.9158 N   0  0  0  0  0  0  0  0  0  0  0  0
   21.5494   -6.8137    5.7559 N   0  0  0  0  0  0  0  0  0  0  0  0
   22.2655   -7.7457    6.5412 N   0  0  0  0  0  0  0  0  0  0  0  0
   23.6560   -7.5505    6.3796 N   0  0  0  0  0  0  0  0  0  0  0  0
   24.3601   -8.4828    7.1627 N   0  0  0  0  0  0  0  0  0  0  0  0
   25.7535   -8.2895    7.0004 N   0  0  0  0  0  0  0  0  0  0  0  0
   26.4677   -9.2254    7.7866 N   0  0  0  0  0  0  0  0  0  0  0  0
   27.8688   -9.0377    7.6312 N   0  0  0  0  0  0  0  0  0  0  0  0
   28.5824   -9.9729    8.4168 N   0  0  0  0  0  0  0  0  0  0  0  0
   29.9720   -9.7788    8.2561 N   0  0  0  0  0  0  0  0  0  0  0  0
   30.6849  -10.7132    9.0410 N   0  0  0  0  0  0  0  0  0  0  0  0
   32.0716  -10.5173    8.8789 N   0  0  0  0  0  0  0  0  0  0  0  0
   32.7889  -11.4539    9.6655 N   0  0  0  0  0  0  0  0  0  0  0  0
   34.1799  -11.2561    9.5019 N   0  0  0  0  0  0  0  0  0  0  0  0
   34.8988  -12.1937   10.2870 N   0  0  0  0  0  0  0  0  0  0  0  0
   36.3040  -12.0055   10.1312 N   0  0  0  0  0  0  0  0  0  0  0  0
   37.0108  -12.9582   10.9290 N   0  0  0  0  0  0  0  0  0  0  0  0
   38.4430  -12.7362   10.7451 C   0  0  0  0  0  0  0  0  0  0  0  0
   39.2054  -13.7396   11.5879 C   0  0  0  0  0  0  0  0  0  0  0  0
   40.6988  -13.5355   11.4165 C   0  0  0  0  0  0  0  0  0  0  0  0
   41.4648  -14.5350   12.2586 C   0  0  0  0  0  0  0  0  0  0  0  0
   42.9554  -14.3283   12.0877 C   0  0  0  0  0  0  0  0  0  0  0  0
   43.7199  -15.3291   12.9283 C   0  0  0  0  0  0  0  0  0  0  0  0
   45.2100  -15.1237   12.7557 C   0  0  0  0  0  0  0  0  0  0  0  0
   45.9744  -16.1244   13.5964 C   0  0  0  0  0  0  0  0  0  0  0  0
   47.4645  -15.9189   13.4238 C   0  0  0  0  0  0  0  0  0  0  0  0
   48.2288  -16.9197   14.2644 C   0  0  0  0  0  0  0  0  0  0  0  0
   49.7189  -16.7142   14.0918 C   0  0  0  0  0  0  0  0  0  0  0  0
   50.4832  -17.7150   14.9324 C   0  0  0  0  0  0  0  0  0  0  0  0
   51.9733  -17.5082   14.7613 C   0  0  0  0  0  0  0  0  0  0  0  0
   52.7376  -18.5102   15.6004 C   0  0  0  0  0  0  0  0  0  0  0  0
   54.2277  -18.3048   15.4278 C   0  0  0  0  0  0  0  0  0  0  0  0
   54.9920  -19.3068   16.2669 C   0  0  0  0  0  0  0  0  0  0  0  0
   56.4821  -19.1000   16.0958 C   0  0  0  0  0  0  0  0  0  0  0  0
   57.2464  -20.1034   16.9333 C   0  0  0  0  0  0  0  0  0  0  0  0
   58.7365  -19.8953   16.7638 C   0  0  0  0  0  0  0  0  0  0  0  0
   59.5008  -20.8973   17.6029 C   0  0  0  0  0  0  0  0  0  0  0  0
   60.9909  -20.6906   17.4318 C   0  0  0  0  0  0  0  0  0  0  0  0
   61.7552  -21.6939   18.2694 C   0  0  0  0  0  0  0  0  0  0  0  0
   63.2453  -21.4871   18.0983 C   0  0  0  0  0  0  0  0  0  0  0  0
   64.0096  -22.4918   18.9343 C   0  0  0  0  0  0  0  0  0  0  0  0
   65.4997  -22.2850   18.7632 C   0  0  0  0  0  0  0  0  0  0  0  0
   66.2641  -23.2896   19.5992 C   0  0  0  0  0  0  0  0  0  0  0  0
   67.7541  -23.0828   19.4282 C   0  0  0  0  0  0  0  0  0  0  0  0
   68.5185  -24.0875   20.2641 C   0  0  0  0  0  0  0  0  0  0  0  0
   70.0085  -23.8807   20.0931 C   0  0  0  0  0  0  0  0  0  0  0  0
   70.7729  -24.8853   20.9291 C   0  0  0  0  0  0  0  0  0  0  0  0
   72.2629  -24.6785   20.7580 C   0  0  0  0  0  0  0  0  0  0  0  0
   73.0273  -25.6832   21.5940 C   0  0  0  0  0  0  0  0  0  0  0  0
   74.5174  -25.4764   21.4229 C   0  0  0  0  0  0  0  0  0  0  0  0
   75.2817  -26.4823   22.2574 C   0  0  0  0  0  0  0  0  0  0  0  0
   76.7718  -26.2755   22.0863 C   0  0  0  0  0  0  0  0  0  0  0  0
   77.5361  -27.2814   22.9207 C   0  0  0  0  0  0  0  0  0  0  0  0
   79.0262  -27.0747   22.7497 C   0  0  0  0  0  0  0  0  0  0  0  0
   79.7905  -28.0806   23.5841 C   0  0  0  0  0  0  0  0  0  0  0  0
   81.2806  -27.8738   23.4131 C   0  0  0  0  0  0  0  0  0  0  0  0
   82.0449  -28.8784   24.2490 C   0  0  0  0  0  0  0  0  0  0  0  0
   83.5350  -28.6717   24.0780 C   0  0  0  0  0  0  0  0  0  0  0  0
   84.2991  -29.6764   24.9141 C   0  0  0  0  0  0  0  0  0  0  0  0
   85.7892  -29.4715   24.7419 C   0  0  0  0  0  0  0  0  0  0  0  0
   86.5561  -30.4752   25.5798 C   0  0  0  0  0  0  0  0  0  0  0  0
   88.0419  -30.2667   25.4047 C   0  0  0  0  0  0  0  0  0  0  0  0
    1.0151    0.2463   -1.4869 H   0  0  0  0  0  0  0  0  0  0  0  0
    1.4142   -1.5279   -1.0949 H   0  0  0  0  0  0  0  0  0  0  0  0
    2.5548    0.9762    0.2347 H   0  0  0  0  0  0  0  0  0  0  0  0
    2.9144   -2.0792    0.5758 H   0  0  0  0  0  0  0  0  0  0  0  0
    2.9168   -0.9324    1.9351 H   0  0  0  0  0  0  0  0  0  0  0  0
    4.9478    0.1559    1.0153 H   0  0  0  0  0  0  0  0  0  0  0  0
    4.9478   -0.9884   -0.3457 H   0  0  0  0  0  0  0  0  0  0  0  0
    5.1782   -2.7796    1.2319 H   0  0  0  0  0  0  0  0  0  0  0  0
    7.0588   -0.6894    1.6584 H   0  0  0  0  0  0  0  0  0  0  0  0
    7.2581   -3.4994    1.8550 H   0  0  0  0  0  0  0  0  0  0  0  0
    9.1081   -1.4082    2.2646 H   0  0  0  0  0  0  0  0  0  0  0  0
    9.3773   -4.2460    2.4648 H   0  0  0  0  0  0  0  0  0  0  0  0
   11.2812   -2.1848    2.9281 H   0  0  0  0  0  0  0  0  0  0  0  0
   11.4893   -4.9932    3.1039 H   0  0  0  0  0  0  0  0  0  0  0  0
   13.3738   -2.9114    3.5344 H   0  0  0  0  0  0  0  0  0  0  0  0
   13.6017   -5.7362    3.7398 H   0  0  0  0  0  0  0  0  0  0  0  0
   15.4836   -3.6520    4.1691 H   0  0  0  0  0  0  0  0  0  0  0  0
   15.6907   -6.4655    4.3611 H   0  0  0  0  0  0  0  0  0  0  0  0
   17.5396   -4.3645    4.7613 H   0  0  0  0  0  0  0  0  0  0  0  0
   17.8268   -7.2158    4.9950 H   0  0  0  0  0  0  0  0  0  0  0  0
   19.7083   -5.1412    5.4406 H   0  0  0  0  0  0  0  0  0  0  0  0
   19.9122   -7.9473    5.6171 H   0  0  0  0  0  0  0  0  0  0  0  0
   21.7968   -5.8684    6.0429 H   0  0  0  0  0  0  0  0  0  0  0  0
   22.0262   -8.6914    6.2460 H   0  0  0  0  0  0  0  0  0  0  0  0
   23.8893   -6.6069    6.6796 H   0  0  0  0  0  0  0  0  0  0  0  0
   24.1056   -9.4223    6.8637 H   0  0  0  0  0  0  0  0  0  0  0  0
   25.9665   -7.3283    7.2816 H   0  0  0  0  0  0  0  0  0  0  0  0
   26.2342  -10.1772    7.4909 H   0  0  0  0  0  0  0  0  0  0  0  0
   28.1337   -8.1026    7.9376 H   0  0  0  0  0  0  0  0  0  0  0  0
   28.3497  -10.9186    8.1175 H   0  0  0  0  0  0  0  0  0  0  0  0
   30.2339   -8.8433    8.5612 H   0  0  0  0  0  0  0  0  0  0  0  0
   30.4441  -11.6581    8.7447 H   0  0  0  0  0  0  0  0  0  0  0  0
   32.3246   -9.5743    9.1698 H   0  0  0  0  0  0  0  0  0  0  0  0
   32.5352  -12.3975    9.3739 H   0  0  0  0  0  0  0  0  0  0  0  0
   34.3878  -10.2959    9.7818 H   0  0  0  0  0  0  0  0  0  0  0  0
   34.6185  -13.1363    9.9899 H   0  0  0  0  0  0  0  0  0  0  0  0
   36.5683  -11.0569   10.4303 H   0  0  0  0  0  0  0  0  0  0  0  0
   36.7915  -13.9125   10.6319 H   0  0  0  0  0  0  0  0  0  0  0  0
   38.7130  -11.7220   11.0572 H   0  0  0  0  0  0  0  0  0  0  0  0
   38.7148  -12.8645    9.6915 H   0  0  0  0  0  0  0  0  0  0  0  0
   38.9416  -14.7596   11.2859 H   0  0  0  0  0  0  0  0  0  0  0  0
   38.9406  -13.6177   12.6444 H   0  0  0  0  0  0  0  0  0  0  0  0
   40.9695  -12.5178   11.7185 H   0  0  0  0  0  0  0  0  0  0  0  0
   40.9699  -13.6602   10.3623 H   0  0  0  0  0  0  0  0  0  0  0  0
   41.1976  -15.5532   11.9559 H   0  0  0  0  0  0  0  0  0  0  0  0
   41.1950  -14.4116   13.3131 H   0  0  0  0  0  0  0  0  0  0  0  0
   43.2236  -13.3108   12.3920 H   0  0  0  0  0  0  0  0  0  0  0  0
   43.2258  -14.4505   11.0332 H   0  0  0  0  0  0  0  0  0  0  0  0
   43.4509  -16.3468   12.6251 H   0  0  0  0  0  0  0  0  0  0  0  0
   43.4509  -15.2061   13.9830 H   0  0  0  0  0  0  0  0  0  0  0  0
   45.4792  -14.1061   13.0590 H   0  0  0  0  0  0  0  0  0  0  0  0
   45.4792  -15.2467   11.7011 H   0  0  0  0  0  0  0  0  0  0  0  0
   45.7053  -17.1420   13.2931 H   0  0  0  0  0  0  0  0  0  0  0  0
   45.7053  -16.0014   14.6510 H   0  0  0  0  0  0  0  0  0  0  0  0
   47.7336  -14.9013   13.7270 H   0  0  0  0  0  0  0  0  0  0  0  0
   47.7336  -16.0420   12.3691 H   0  0  0  0  0  0  0  0  0  0  0  0
   47.9597  -17.9373   13.9611 H   0  0  0  0  0  0  0  0  0  0  0  0
   47.9597  -16.7966   15.3191 H   0  0  0  0  0  0  0  0  0  0  0  0
   49.9880  -15.6966   14.3951 H   0  0  0  0  0  0  0  0  0  0  0  0
   49.9880  -16.8373   13.0371 H   0  0  0  0  0  0  0  0  0  0  0  0
   50.2152  -18.7326   14.6281 H   0  0  0  0  0  0  0  0  0  0  0  0
   50.2130  -17.5929   15.9869 H   0  0  0  0  0  0  0  0  0  0  0  0
   52.2415  -16.4911   15.0669 H   0  0  0  0  0  0  0  0  0  0  0  0
   52.2432  -17.6289   13.7066 H   0  0  0  0  0  0  0  0  0  0  0  0
   52.4683  -19.5274   15.2958 H   0  0  0  0  0  0  0  0  0  0  0  0
   52.4687  -18.3886   16.6553 H   0  0  0  0  0  0  0  0  0  0  0  0
   54.4970  -17.2876   15.7324 H   0  0  0  0  0  0  0  0  0  0  0  0
   54.4966  -18.4264   14.3729 H   0  0  0  0  0  0  0  0  0  0  0  0
   54.7238  -20.3239   15.9612 H   0  0  0  0  0  0  0  0  0  0  0  0
   54.7220  -19.1861   17.3216 H   0  0  0  0  0  0  0  0  0  0  0  0
   56.7506  -18.0834   16.4028 H   0  0  0  0  0  0  0  0  0  0  0  0
   56.7518  -19.2193   15.0408 H   0  0  0  0  0  0  0  0  0  0  0  0
   56.9790  -21.1200   16.6254 H   0  0  0  0  0  0  0  0  0  0  0  0
   56.9756  -19.9851   17.9881 H   0  0  0  0  0  0  0  0  0  0  0  0
   59.0037  -18.8782   17.0704 H   0  0  0  0  0  0  0  0  0  0  0  0
   59.0075  -20.0150   15.7092 H   0  0  0  0  0  0  0  0  0  0  0  0
   59.2326  -21.9145   17.2973 H   0  0  0  0  0  0  0  0  0  0  0  0
   59.2309  -20.7767   18.6576 H   0  0  0  0  0  0  0  0  0  0  0  0
   61.2594  -19.6739   17.7388 H   0  0  0  0  0  0  0  0  0  0  0  0
   61.2607  -20.8098   16.3769 H   0  0  0  0  0  0  0  0  0  0  0  0
   61.4868  -22.7106   17.9624 H   0  0  0  0  0  0  0  0  0  0  0  0
   61.4855  -21.5747   19.3243 H   0  0  0  0  0  0  0  0  0  0  0  0
   63.5140  -20.4709   18.4066 H   0  0  0  0  0  0  0  0  0  0  0  0
   63.5148  -21.6050   17.0431 H   0  0  0  0  0  0  0  0  0  0  0  0
   63.7410  -23.5080   18.6259 H   0  0  0  0  0  0  0  0  0  0  0  0
   63.7401  -22.3740   19.9895 H   0  0  0  0  0  0  0  0  0  0  0  0
   65.7684  -21.2688   19.0716 H   0  0  0  0  0  0  0  0  0  0  0  0
   65.7692  -22.4028   17.7080 H   0  0  0  0  0  0  0  0  0  0  0  0
   65.9954  -24.3058   19.2909 H   0  0  0  0  0  0  0  0  0  0  0  0
   65.9945  -23.1718   20.6544 H   0  0  0  0  0  0  0  0  0  0  0  0
   68.0228  -22.0666   19.7365 H   0  0  0  0  0  0  0  0  0  0  0  0
   68.0237  -23.2006   18.3730 H   0  0  0  0  0  0  0  0  0  0  0  0
   68.2498  -25.1037   19.9558 H   0  0  0  0  0  0  0  0  0  0  0  0
   68.2489  -23.9697   21.3193 H   0  0  0  0  0  0  0  0  0  0  0  0
   70.2772  -22.8645   20.4014 H   0  0  0  0  0  0  0  0  0  0  0  0
   70.2781  -23.9985   19.0379 H   0  0  0  0  0  0  0  0  0  0  0  0
   70.5042  -25.9015   20.6207 H   0  0  0  0  0  0  0  0  0  0  0  0
   70.5033  -24.7675   21.9842 H   0  0  0  0  0  0  0  0  0  0  0  0
   72.5316  -23.6623   21.0663 H   0  0  0  0  0  0  0  0  0  0  0  0
   72.5325  -24.7963   19.7028 H   0  0  0  0  0  0  0  0  0  0  0  0
   72.7586  -26.6994   21.2856 H   0  0  0  0  0  0  0  0  0  0  0  0
   72.7578  -25.5654   22.6492 H   0  0  0  0  0  0  0  0  0  0  0  0
   74.7863  -24.4607   21.7326 H   0  0  0  0  0  0  0  0  0  0  0  0
   74.7867  -25.5928   20.3675 H   0  0  0  0  0  0  0  0  0  0  0  0
   75.0128  -27.4980   21.9477 H   0  0  0  0  0  0  0  0  0  0  0  0
   75.0124  -26.3659   23.3128 H   0  0  0  0  0  0  0  0  0  0  0  0
   77.0407  -25.2598   22.3960 H   0  0  0  0  0  0  0  0  0  0  0  0
   77.0411  -26.3919   21.0309 H   0  0  0  0  0  0  0  0  0  0  0  0
   77.2672  -28.2972   22.6110 H   0  0  0  0  0  0  0  0  0  0  0  0
   77.2668  -27.1650   23.9761 H   0  0  0  0  0  0  0  0  0  0  0  0
   79.2951  -26.0589   23.0594 H   0  0  0  0  0  0  0  0  0  0  0  0
   79.2955  -27.1910   21.6943 H   0  0  0  0  0  0  0  0  0  0  0  0
   79.5216  -29.0963   23.2744 H   0  0  0  0  0  0  0  0  0  0  0  0
   79.5212  -27.9642   24.6395 H   0  0  0  0  0  0  0  0  0  0  0  0
   81.5493  -26.8576   23.7214 H   0  0  0  0  0  0  0  0  0  0  0  0
   81.5501  -27.9916   22.3579 H   0  0  0  0  0  0  0  0  0  0  0  0
   81.7762  -29.8946   23.9407 H   0  0  0  0  0  0  0  0  0  0  0  0
   81.7754  -28.7606   25.3042 H   0  0  0  0  0  0  0  0  0  0  0  0
   83.8037  -27.6555   24.3863 H   0  0  0  0  0  0  0  0  0  0  0  0
   83.8045  -28.7895   23.0228 H   0  0  0  0  0  0  0  0  0  0  0  0
   84.0295  -30.6926   24.6066 H   0  0  0  0  0  0  0  0  0  0  0  0
   84.0308  -29.5575   25.9694 H   0  0  0  0  0  0  0  0  0  0  0  0
   86.0587  -28.4544   25.0474 H   0  0  0  0  0  0  0  0  0  0  0  0
   86.0578  -29.5911   23.6865 H   0  0  0  0  0  0  0  0  0  0  0  0
   86.2899  -31.4919   25.2736 H   0  0  0  0  0  0  0  0  0  0  0  0
   86.2908  -30.3549   26.6350 H   0  0  0  0  0  0  0  0  0  0  0  0
   88.3210  -30.3967   24.3548 H   0  0  0  0  0  0  0  0  0  0  0  0
   88.5963  -30.9885   26.0072 H   0  0  0  0  0  0  0  0  0  0  0  0
   88.3219  -29.2570   25.7194 H   0  0  0  0  0  0  0  0  0  0  0  0
  1  2  2  0  0  0  0
  1 81  1  0  0  0  0
  1 82  1  0  0  0  0
  2  3  1  0  0  0  0
  2 83  1  0  0  0  0
  3  4  1  0  0  0  0
  3 84  1  0  0  0  0
  3 85  1  0  0  0  0
  4  5  1  0  0  0  0
  4 86  1  0  0  0  0
  4 87  1  0  0  0  0
  5  6  1  0  0  0  0
  5 88  1  0  0  0  0
  6  7  1  0  0  0  0
  6 89  1  0  0  0  0
  7  8  1  0  0  0  0
  7 90  1  0  0  0  0
  8  9  1  0  0  0  0
  8 91  1  0  0  0  0
  9 10  1  0  0  0  0
  9 92  1  0  0  0  0
 10 11  1  0  0  0  0
 10 93  1  0  0  0  0
 11 12  1  0  0  0  0
 11 94  1  0  0  0  0
 12 13  1  0  0  0  0
 12 95  1  0  0  0  0
 13 14  1  0  0  0  0
 13 96  1  0  0  0  0
 14 15  1  0  0  0  0
 14 97  1  0  0  0  0
 15 16  1  0  0  0  0
 15 98  1  0  0  0  0
 16 17  1  0  0  0  0
 16 99  1  0  0  0  0
 17 18  1  0  0  0  0
 17100  1  0  0  0  0
 18 19  1  0  0  0  0
 18101  1  0  0  0  0
 19 20  1  0  0  0  0
 19102  1  0  0  0  0
 20 21  1  0  0  0  0
 20103  1  0  0  0  0
 21 22  1  0  0  0  0
 21104  1  0  0  0  0
 22 23  1  0  0  0  0
 22105  1  0  0  0  0
 23 24  1  0  0  0  0
 23106  1  0  0  0  0
 24 25  1  0  0  0  0
 24107  1  0  0  0  0
 25 26  1  0  0  0  0
 25108  1  0  0  0  0
 26 27  1  0  0  0  0
 26109  1  0  0  0  0
 27 28  1  0  0  0  0
 27110  1  0  0  0  0
 28 29  1  0  0  0  0
 28111  1  0  0  0  0
 29 30  1  0  0  0  0
 29112  1  0  0  0  0
 30 31  1  0  0  0  0
 30113  1  0  0  0  0
 31 32  1  0  0  0  0
 31114  1  0  0  0  0
 32 33  1  0  0  0  0
 32115  1  0  0  0  0
 33 34  1  0  0  0  0
 33116  1  0  0  0  0
 34 35  1  0  0  0  0
 34117  1  0  0  0  0
 35 36  1  0  0  0  0
 35118  1  0  0  0  0
 36 37  1  0  0  0  0
 36119  1  0  0  0  0
 36120  1  0  0  0  0
 37 38  1  0  0  0  0
 37121  1  0  0  0  0
 37122  1  0  0  0  0
 38 39  1  0  0  0  0
 38123  1  0  0  0  0
 38124  1  0  0  0  0
 39 40  1  0  0  0  0
 39125  1  0  0  0  0
 39126  1  0  0  0  0
 40 41  1  0  0  0  0
 40127  1  0  0  0  0
 40128  1  0  0  0  0
 41 42  1  0  0  0  0
 41129  1  0  0  0  0
 41130  1  0  0  0  0
 42 43  1  0  0  0  0
 42131  1  0  0  0  0
 42132  1  0  0  0  0
 43 44  1  0  0  0  0
 43133  1  0  0  0  0
 43134  1  0  0  0  0
 44 45  1  0  0  0  0
 44135  1  0  0  0  0
 44136  1  0  0  0  0
 45 46  1  0  0  0  0
 45137  1  0  0  0  0
 45138  1  0  0  0  0
 46 47  1  0  0  0  0
 46139  1  0  0  0  0
 46140  1  0  0  0  0
 47 48  1  0  0  0  0
 47141  1  0  0  0  0
 47142  1  0  0  0  0
 48 49  1  0  0  0  0
 48143  1  0  0  0  0
 48144  1  0  0  0  0
 49 50  1  0  0  0  0
 49145  1  0  0  0  0
 49146  1  0  0  0  0
 50 51  1  0  0  0  0
 50147  1  0  0  0  0
 50148  1  0  0  0  0
 51 52  1  0  0  0  0
 51149  1  0  0  0  0
 51150  1  0  0  0  0
 52 53  1  0  0  0  0
 52151  1  0  0  0  0
 52152  1  0  0  0  0
 53 54  1  0  0  0  0
 53153  1  0  0  0  0
 53154  1  0  0  0  0
 54 55  1  0  0  0  0
 54155  1  0  0  0  0
 54156  1  0  0  0  0
 55 56  1  0  0  0  0
 55157  1  0  0  0  0
 55158  1  0  0  0  0
 56 57  1  0  0  0  0
 56159  1  0  0  0  0
 56160  1  0  0  0  0
 57 58  1  0  0  0  0
 57161  1  0  0  0  0
 57162  1  0  0  0  0
 58 59  1  0  0  0  0
 58163  1  0  0  0  0
 58164  1  0  0  0  0
 59 60  1  0  0  0  0
 59165  1  0  0  0  0
 59166  1  0  0  0  0
 60 61  1  0  0  0  0
 60167  1  0  0  0  0
 60168  1  0  0  0  0
 61 62  1  0  0  0  0
 61169  1  0  0  0  0
 61170  1  0  0  0  0
 62 63  1  0  0  0  0
 62171  1  0  0  0  0
 62172  1  0  0  0  0
 63 64  1  0  0  0  0
 63173  1  0  0  0  0
 63174  1  0  0  0  0
 64 65  1  0  0  0  0
 64175  1  0  0  0  0
 64176  1  0  0  0  0
 65 66  1  0  0  0  0
 65177  1  0  0  0  0
 65178  1  0  0  0  0
 66 67  1  0  0  0  0
 66179  1  0  0  0  0
 66180  1  0  0  0  0
 67 68  1  0  0  0  0
 67181  1  0  0  0  0
 67182  1  0  0  0  0
 68 69  1  0  0  0  0
 68183  1  0  0  0  0
 68184  1  0  0  0  0
 69 70  1  0  0  0  0
 69185  1  0  0  0  0
 69186  1  0  0  0  0
 70 71  1  0  0  0  0
 70187  1  0  0  0  0
 70188  1  0  0  0  0
 71 72  1  0  0  0  0
 71189  1  0  0  0  0
 71190  1  0  0  0  0
 72 73  1  0  0  0  0
 72191  1  0  0  0  0
 72192  1  0  0  0  0
 73 74  1  0  0  0  0
 73193  1  0  0  0  0
 73194  1  0  0  0  0
 74 75  1  0  0  0  0
 74195  1  0  0  0  0
 74196  1  0  0  0  0
 75 76  1  0  0  0  0
 75197  1  0  0  0  0
 75198  1  0  0  0  0
 76 77  1  0  0  0  0
 76199  1  0  0  0  0
 76200  1  0  0  0  0
 77 78  1  0  0  0  0
 77201  1  0  0  0  0
 77202  1  0  0  0  0
 78 79  1  0  0  0  0
 78203  1  0  0  0  0
 78204  1  0  0  0  0
 79 80  1  0  0  0  0
 79205  1  0  0  0  0
 79206  1  0  0  0  0
 80207  1  0  0  0  0
 80208  1  0  0  0  0
 80209  1  0  0  0  0
M  END
$$$$
