
 OpenBabel04232216443D

 49 50  0  0  0  0  0  0  0  0999 V2000
    8.4384   -1.7849   -4.6014 C   0  0  0  0  0  0  0  0  0  0  0  0
    9.8952   -1.7009   -5.2874 C   0  0  0  0  0  0  0  0  0  0  0  0
    9.9974   -1.4390   -6.8283 C   0  0  0  0  0  0  0  0  0  0  0  0
    9.7177   -2.3574   -7.5966 O   0  0  0  0  0  0  0  0  0  0  0  0
   10.5521   -0.1864   -7.1539 N   0  0  0  0  0  0  0  0  0  0  0  0
   11.6221    0.0875   -8.3044 C   0  0  0  0  0  0  0  0  0  0  0  0
   12.8552   -0.7886   -9.0464 C   0  0  0  0  0  0  0  0  0  0  0  0
   14.4719   -0.9513   -8.9937 C   0  0  0  0  0  0  0  0  0  0  0  0
   15.5476    0.0737   -8.5839 C   0  0  0  0  0  0  0  0  0  0  0  0
   15.7413    0.1141   -7.0544 C   0  0  0  0  0  0  0  0  0  0  0  0
   14.5002   -0.3749   -6.1680 C   0  0  0  0  0  0  0  0  0  0  0  0
   13.2781   -1.4494   -5.8313 C   0  0  0  0  0  0  0  0  0  0  0  0
    9.8109    0.9618   -6.6386 C   0  0  0  0  0  0  0  0  0  0  0  0
    9.2563    1.0983   -5.4097 C   0  0  0  0  0  0  0  0  0  0  0  0
    9.4895    2.2349   -4.4780 C   0  0  0  0  0  0  0  0  0  0  0  0
   10.0815    2.0427   -3.2460 C   0  0  0  0  0  0  0  0  0  0  0  0
    9.9595    0.8552   -2.2755 C   0  0  0  0  0  0  0  0  0  0  0  0
   11.1766    2.8080   -2.9308 N   0  0  0  0  0  0  0  0  0  0  0  0
   12.2809    2.4918   -3.5260 C   0  0  0  0  0  0  0  0  0  0  0  0
   12.4325    1.5662   -4.6630 C   0  0  0  0  0  0  0  0  0  0  0  0
   12.4257    0.2149   -4.3309 C   0  0  0  0  0  0  0  0  0  0  0  0
   12.1418   -0.8342   -5.1178 N   0  0  0  0  0  0  0  0  0  0  0  0
   11.0125   -1.6602   -4.5766 N   0  0  0  0  0  0  0  0  0  0  0  0
    7.6210   -1.6403   -5.3171 H   0  0  0  0  0  0  0  0  0  0  0  0
    8.2746   -0.9704   -3.8665 H   0  0  0  0  0  0  0  0  0  0  0  0
    8.2464   -2.6775   -4.0051 H   0  0  0  0  0  0  0  0  0  0  0  0
   12.1031    1.0260   -7.9992 H   0  0  0  0  0  0  0  0  0  0  0  0
   10.9623    0.2933   -9.1551 H   0  0  0  0  0  0  0  0  0  0  0  0
   12.4897   -1.7993   -9.2720 H   0  0  0  0  0  0  0  0  0  0  0  0
   12.8465   -0.2585  -10.0119 H   0  0  0  0  0  0  0  0  0  0  0  0
   14.7327   -1.8704   -8.4522 H   0  0  0  0  0  0  0  0  0  0  0  0
   14.7711   -1.2334  -10.0229 H   0  0  0  0  0  0  0  0  0  0  0  0
   16.5060   -0.3065   -9.0093 H   0  0  0  0  0  0  0  0  0  0  0  0
   15.5173    1.0745   -9.0409 H   0  0  0  0  0  0  0  0  0  0  0  0
   16.0340    1.1372   -6.7638 H   0  0  0  0  0  0  0  0  0  0  0  0
   16.6493   -0.4695   -6.8175 H   0  0  0  0  0  0  0  0  0  0  0  0
   14.9409   -1.3283   -6.4925 H   0  0  0  0  0  0  0  0  0  0  0  0
   13.8432    0.3224   -6.6905 H   0  0  0  0  0  0  0  0  0  0  0  0
   12.9217   -1.9086   -6.7557 H   0  0  0  0  0  0  0  0  0  0  0  0
   13.6936   -2.2384   -5.1897 H   0  0  0  0  0  0  0  0  0  0  0  0
    9.3403    1.5142   -7.4556 H   0  0  0  0  0  0  0  0  0  0  0  0
    9.3507    0.2959   -4.7286 H   0  0  0  0  0  0  0  0  0  0  0  0
    9.6154    3.2147   -4.9462 H   0  0  0  0  0  0  0  0  0  0  0  0
    8.9511    0.6976   -1.9142 H   0  0  0  0  0  0  0  0  0  0  0  0
   10.5553    1.0670   -1.3834 H   0  0  0  0  0  0  0  0  0  0  0  0
   10.3491   -0.0911   -2.6674 H   0  0  0  0  0  0  0  0  0  0  0  0
   13.2162    2.9402   -3.1905 H   0  0  0  0  0  0  0  0  0  0  0  0
   12.1858    1.8972   -5.6771 H   0  0  0  0  0  0  0  0  0  0  0  0
   12.5554   -0.0708   -3.2737 H   0  0  0  0  0  0  0  0  0  0  0  0
  1  2  1  0  0  0  0
  1 24  1  0  0  0  0
  1 25  1  0  0  0  0
  1 26  1  0  0  0  0
  2  3  1  0  0  0  0
  2 23  2  0  0  0  0
  3  4  2  0  0  0  0
  3  5  1  0  0  0  0
  5  6  1  0  0  0  0
  5 13  1  0  0  0  0
  6  7  1  0  0  0  0
  6 27  1  0  0  0  0
  6 28  1  0  0  0  0
  7  8  1  0  0  0  0
  7 29  1  0  0  0  0
  7 30  1  0  0  0  0
  8  9  1  0  0  0  0
  8 31  1  0  0  0  0
  8 32  1  0  0  0  0
  9 10  1  0  0  0  0
  9 33  1  0  0  0  0
  9 34  1  0  0  0  0
 10 11  1  0  0  0  0
 10 35  1  0  0  0  0
 10 36  1  0  0  0  0
 11 12  1  0  0  0  0
 11 37  1  0  0  0  0
 11 38  1  0  0  0  0
 12 22  1  0  0  0  0
 12 39  1  0  0  0  0
 12 40  1  0  0  0  0
 13 14  2  0  0  0  0
 13 41  1  0  0  0  0
 14 15  1  0  0  0  0
 14 42  1  0  0  0  0
 15 16  2  0  0  0  0
 15 43  1  0  0  0  0
 16 17  1  0  0  0  0
 16 18  1  0  0  0  0
 17 44  1  0  0  0  0
 17 45  1  0  0  0  0
 17 46  1  0  0  0  0
 18 19  2  0  0  0  0
 19 20  1  0  0  0  0
 19 47  1  0  0  0  0
 20 21  2  0  0  0  0
 20 48  1  0  0  0  0
 21 22  1  0  0  0  0
 21 49  1  0  0  0  0
 22 23  1  0  0  0  0
M  END
$$$$
