
 OpenBabel04232216453D

 39 40  0  0  0  0  0  0  0  0999 V2000
    2.2344   -1.1871    0.7296 C   0  0  0  0  0  0  0  0  0  0  0  0
    3.6247   -0.9597    1.3337 C   0  0  0  0  0  0  0  0  0  0  0  0
    3.7561    0.4823    1.5470 C   0  0  0  0  0  3  0  0  0  0  0  0
    4.5701    1.2824    0.6098 C   0  0  0  0  0  0  0  0  0  0  0  0
    4.7175    2.4836    0.7737 O   0  0  0  0  0  0  0  0  0  0  0  0
    5.0622    0.5842   -0.4544 N   0  0  0  0  0  0  0  0  0  0  0  0
    5.1372   -0.7051   -0.3618 C   0  0  0  0  0  0  0  0  0  0  0  0
    5.7219   -1.3883   -1.5490 C   0  0  0  0  0  0  0  0  0  0  0  0
    5.0059   -1.8552   -2.4180 O   0  0  0  0  0  0  0  0  0  0  0  0
    7.1586   -1.6204   -1.3644 C   0  0  0  0  0  0  0  0  0  0  0  0
    8.0249   -0.6057   -0.6857 C   0  0  0  0  0  0  0  0  0  0  0  0
    7.3040   -2.9466   -1.3326 C   0  0  0  0  0  0  0  0  0  0  0  0
    8.3168   -3.6480   -0.5178 C   0  0  0  0  0  0  0  0  0  0  0  0
    8.7310   -4.8779   -1.3638 C   0  0  0  0  0  0  0  0  0  0  0  0
   10.2304   -5.1675   -1.4749 C   0  0  0  0  0  0  0  0  0  0  0  0
   10.4886   -6.1610   -2.6077 C   0  0  0  0  0  0  0  0  0  0  0  0
    9.4224   -2.8678   -0.3461 F   0  0  0  0  0  0  0  0  0  0  0  0
    7.7066   -3.9048    0.8416 C   0  0  0  0  0  0  0  0  0  0  0  0
    6.4754   -3.4670    1.5267 C   0  0  0  0  0  0  0  0  0  0  0  0
    5.4050   -2.6428    1.5028 C   0  0  0  0  0  0  0  0  0  0  0  0
    4.6997   -1.5694    0.7751 C   0  0  0  0  0  0  0  0  0  0  0  0
    1.7797   -0.2505    0.3735 H   0  0  0  0  0  0  0  0  0  0  0  0
    1.5600   -1.6182    1.4727 H   0  0  0  0  0  0  0  0  0  0  0  0
    2.2768   -1.8521   -0.1383 H   0  0  0  0  0  0  0  0  0  0  0  0
    3.0627    1.0360    2.1656 H   0  0  0  0  0  0  0  0  0  0  0  0
    7.5209    0.3559   -0.5393 H   0  0  0  0  0  0  0  0  0  0  0  0
    8.9189   -0.4051   -1.2752 H   0  0  0  0  0  0  0  0  0  0  0  0
    8.3232   -0.9361    0.3181 H   0  0  0  0  0  0  0  0  0  0  0  0
    6.5210   -3.6073   -1.7104 H   0  0  0  0  0  0  0  0  0  0  0  0
    8.3906   -4.7313   -2.4026 H   0  0  0  0  0  0  0  0  0  0  0  0
    8.1998   -5.7798   -1.0227 H   0  0  0  0  0  0  0  0  0  0  0  0
   10.6153   -5.5645   -0.5309 H   0  0  0  0  0  0  0  0  0  0  0  0
   10.7823   -4.2481   -1.7029 H   0  0  0  0  0  0  0  0  0  0  0  0
    9.9270   -7.0877   -2.4571 H   0  0  0  0  0  0  0  0  0  0  0  0
   11.5526   -6.4065   -2.6777 H   0  0  0  0  0  0  0  0  0  0  0  0
   10.1842   -5.7363   -3.5722 H   0  0  0  0  0  0  0  0  0  0  0  0
    8.3842   -4.4577    1.4942 H   0  0  0  0  0  0  0  0  0  0  0  0
    6.4723   -4.0567    2.4622 H   0  0  0  0  0  0  0  0  0  0  0  0
    4.8067   -2.8147    2.4148 H   0  0  0  0  0  0  0  0  0  0  0  0
  1  2  1  0  0  0  0
  1 22  1  0  0  0  0
  1 23  1  0  0  0  0
  1 24  1  0  0  0  0
  2  3  1  0  0  0  0
  2 21  2  0  0  0  0
  3  4  1  0  0  0  0
  3 25  1  0  0  0  0
  4  5  2  0  0  0  0
  4  6  1  0  0  0  0
  6  7  2  0  0  0  0
  7  8  1  0  0  0  0
  7 21  1  0  0  0  0
  8  9  2  0  0  0  0
  8 10  1  0  0  0  0
 10 11  1  0  0  0  0
 10 12  2  3  0  0  0
 11 26  1  0  0  0  0
 11 27  1  0  0  0  0
 11 28  1  0  0  0  0
 12 13  1  0  0  0  0
 12 29  1  0  0  0  0
 13 14  1  0  0  0  0
 13 17  1  0  0  0  0
 13 18  2  0  0  0  0
 14 15  1  0  0  0  0
 14 30  1  0  0  0  0
 14 31  1  0  0  0  0
 15 16  1  0  0  0  0
 15 32  1  0  0  0  0
 15 33  1  0  0  0  0
 16 34  1  0  0  0  0
 16 35  1  0  0  0  0
 16 36  1  0  0  0  0
 18 19  1  0  0  0  0
 18 37  1  0  0  0  0
 19 20  2  3  0  0  0
 19 38  1  0  0  0  0
 20 21  1  0  0  0  0
 20 39  1  0  0  0  0
M  END
$$$$
