
 OpenBabel04232217023D

141140  0  0  0  0  0  0  0  0999 V2000
   49.3160    9.0944  -29.4348 O   0  0  0  0  0  0  0  0  0  0  0  0
   49.0803    7.6683  -29.3453 O   0  0  0  0  0  0  0  0  0  0  0  0
   49.7131    7.1001  -30.4857 C   0  0  0  0  0  0  0  0  0  0  0  0
   49.4069    5.6080  -30.5223 C   0  0  0  0  0  0  0  0  0  0  0  0
   47.9024    5.3391  -30.7059 C   0  0  0  0  0  0  0  0  0  0  0  0
   47.6507    3.8990  -30.7211 N   0  0  0  0  0  0  0  0  0  0  0  0
   46.2644    3.7087  -31.0084 N   0  0  0  0  0  0  0  0  0  0  0  0
   45.8440    2.3595  -30.8758 N   0  0  0  0  0  0  0  0  0  0  0  0
   46.1010    1.7589  -29.6303 N   0  0  0  0  0  0  0  0  0  0  0  0
   45.4325    2.2380  -28.5166 N   0  0  0  0  0  0  0  0  0  0  0  0
   44.0526    2.0000  -28.4994 N   0  0  0  0  0  0  0  0  0  0  0  0
   43.8080    0.6118  -28.5625 N   0  0  0  0  0  0  0  0  0  0  0  0
   44.0420    0.0166  -27.2750 N   0  0  0  0  0  0  0  0  0  0  0  0
   43.1885    0.5710  -26.2604 N   0  0  0  0  0  0  0  0  0  0  0  0
   41.8093    0.3063  -26.5595 N   0  0  0  0  0  0  0  0  0  0  0  0
   41.7523   -1.1101  -26.8211 N   0  0  0  0  0  0  0  0  0  0  0  0
   42.2722   -1.7432  -25.6048 N   0  0  0  0  0  0  0  0  0  0  0  0
   41.7726   -0.9827  -24.4477 N   0  0  0  0  0  0  0  0  0  0  0  0
   40.3370   -0.7738  -24.6621 N   0  0  0  0  0  0  0  0  0  0  0  0
   39.6815   -2.0613  -24.7888 N   0  0  0  0  0  0  0  0  0  0  0  0
   40.0035   -2.8228  -23.6323 N   0  0  0  0  0  0  0  0  0  0  0  0
   39.5248   -2.0440  -22.5007 N   0  0  0  0  0  0  0  0  0  0  0  0
   38.0617   -1.9091  -22.6231 N   0  0  0  0  0  0  0  0  0  0  0  0
   37.4847   -3.1809  -22.4573 N   0  0  0  0  0  0  0  0  0  0  0  0
   37.9754   -3.5980  -21.1979 N   0  0  0  0  0  0  0  0  0  0  0  0
   37.2284   -3.1495  -20.0718 N   0  0  0  0  0  0  0  0  0  0  0  0
   35.8171   -3.4520  -20.0944 N   0  0  0  0  0  0  0  0  0  0  0  0
   35.4674   -4.8570  -20.3230 N   0  0  0  0  0  0  0  0  0  0  0  0
   35.6373   -5.7877  -19.2352 N   0  0  0  0  0  0  0  0  0  0  0  0
   34.9830   -5.4594  -18.0354 N   0  0  0  0  0  0  0  0  0  0  0  0
   33.5588   -5.5906  -18.0771 N   0  0  0  0  0  0  0  0  0  0  0  0
   33.1684   -6.9493  -18.2420 N   0  0  0  0  0  0  0  0  0  0  0  0
   33.5524   -7.4179  -19.5302 N   0  0  0  0  0  0  0  0  0  0  0  0
   33.5319   -9.0683  -19.5391 S   0  0  0  0  0  0  0  0  0  0  0  0
   34.1120   -9.5018  -21.0128 N   0  0  0  0  0  0  0  0  0  0  0  0
   35.7284   -9.8573  -21.0380 S   0  0  0  0  0  0  0  0  0  0  0  0
   36.1391  -10.8096  -19.7540 N   0  0  0  0  0  0  0  0  0  0  0  0
   37.7897  -10.9083  -19.5736 S   0  0  0  0  0  0  0  0  0  0  0  0
   38.4724   -9.4012  -19.4201 N   0  0  0  0  0  0  0  0  0  0  0  0
   38.0527   -8.6279  -18.0196 S   0  0  0  0  0  0  0  0  0  0  0  0
   38.9309   -7.2247  -17.8797 N   0  0  0  0  0  0  0  0  0  0  0  0
   39.4702   -6.4974  -19.2618 S   0  0  0  0  0  0  0  0  0  0  0  0
   38.1488   -6.2296  -20.1855 N   0  0  0  0  0  0  0  0  0  0  0  0
   38.2076   -6.9479  -21.6582 S   0  0  0  0  0  0  0  0  0  0  0  0
   37.0307   -6.1541  -22.4978 N   0  0  0  0  0  0  0  0  0  0  0  0
   36.0835   -7.1966  -23.3263 S   0  0  0  0  0  0  0  0  0  0  0  0
   34.5130   -6.8769  -22.8901 N   0  0  0  0  0  0  0  0  0  0  0  0
   33.7803   -5.7084  -23.8129 S   0  0  0  0  0  0  0  0  0  0  0  0
   34.3210   -5.8069  -25.3828 N   0  0  0  0  0  0  0  0  0  0  0  0
   33.9358   -7.2279  -26.1651 S   0  0  0  0  0  0  0  0  0  0  0  0
   32.3155   -7.5111  -26.0313 N   0  0  0  0  0  0  0  0  0  0  0  0
   31.3785   -6.6312  -27.0669 S   0  0  0  0  0  0  0  0  0  0  0  0
   31.9463   -6.8392  -28.6067 N   0  0  0  0  0  0  0  0  0  0  0  0
   31.5648   -8.2797  -29.3229 S   0  0  0  0  0  0  0  0  0  0  0  0
   29.9343   -8.5311  -29.2539 N   0  0  0  0  0  0  0  0  0  0  0  0
   28.9983   -7.5753  -30.2230 S   0  0  0  0  0  0  0  0  0  0  0  0
   29.5309   -7.6781  -31.7837 N   0  0  0  0  0  0  0  0  0  0  0  0
   29.2418   -9.1217  -32.5442 S   0  0  0  0  0  0  0  0  0  0  0  0
   27.6252   -9.4572  -32.5814 N   0  0  0  0  0  0  0  0  0  0  0  0
   26.6974   -8.4082  -33.4538 S   0  0  0  0  0  0  0  0  0  0  0  0
   27.0325   -8.5338  -35.0496 N   0  0  0  0  0  0  0  0  0  0  0  0
   26.5628   -9.9212  -35.7856 S   0  0  0  0  0  0  0  0  0  0  0  0
   27.3494   -9.8317  -37.2433 N   0  0  0  0  0  0  0  0  0  0  0  0
   26.5768   -8.8603  -38.3409 S   0  0  0  0  0  0  0  0  0  0  0  0
   26.6313   -7.3163  -37.7303 N   0  0  0  0  0  0  0  0  0  0  0  0
   28.1098   -6.5749  -37.8778 S   0  0  0  0  0  0  0  0  0  0  0  0
   28.5716   -6.6229  -39.4571 N   0  0  0  0  0  0  0  0  0  0  0  0
   27.9490   -5.3754  -40.3373 S   0  0  0  0  0  0  0  0  0  0  0  0
   28.4862   -5.6480  -41.8803 N   0  0  0  0  0  0  0  0  0  0  0  0
   29.9985   -5.0121  -42.1550 S   0  0  0  0  0  0  0  0  0  0  0  0
   31.1325   -5.8117  -41.2512 N   0  0  0  0  0  0  0  0  0  0  0  0
   31.3592   -7.3976  -41.6655 S   0  0  0  0  0  0  0  0  0  0  0  0
   32.0699   -7.5083  -43.1492 N   0  0  0  0  0  0  0  0  0  0  0  0
   33.5521   -6.8072  -43.2899 S   0  0  0  0  0  0  0  0  0  0  0  0
   34.6243   -7.6408  -42.3486 N   0  0  0  0  0  0  0  0  0  0  0  0
   34.9023   -9.2159  -42.7823 S   0  0  0  0  0  0  0  0  0  0  0  0
   35.2659   -9.2539  -44.3968 N   0  0  0  0  0  0  0  0  0  0  0  0
   36.7603   -8.5987  -44.7102 S   0  0  0  0  0  0  0  0  0  0  0  0
   37.1997   -9.0835  -46.2375 N   0  0  0  0  0  0  0  0  0  0  0  0
   36.1647   -8.4594  -47.3759 S   0  0  0  0  0  0  0  0  0  0  0  0
   36.8590   -8.6637  -48.8656 N   0  0  0  0  0  0  0  0  0  0  0  0
   48.6253    9.3347  -28.7917 H   0  0  0  0  0  0  0  0  0  0  0  0
   50.7953    7.2556  -30.4057 H   0  0  0  0  0  0  0  0  0  0  0  0
   49.3538    7.5894  -31.4019 H   0  0  0  0  0  0  0  0  0  0  0  0
   49.7354    5.1514  -29.5770 H   0  0  0  0  0  0  0  0  0  0  0  0
   49.9673    5.1370  -31.3332 H   0  0  0  0  0  0  0  0  0  0  0  0
   47.5845    5.8024  -31.6523 H   0  0  0  0  0  0  0  0  0  0  0  0
   47.3352    5.8132  -29.8953 H   0  0  0  0  0  0  0  0  0  0  0  0
   47.8300    3.5310  -29.7806 H   0  0  0  0  0  0  0  0  0  0  0  0
   46.0106    4.0995  -31.9229 H   0  0  0  0  0  0  0  0  0  0  0  0
   46.1698    1.7272  -31.6008 H   0  0  0  0  0  0  0  0  0  0  0  0
   47.0371    1.4195  -29.4312 H   0  0  0  0  0  0  0  0  0  0  0  0
   45.7026    3.1286  -28.1267 H   0  0  0  0  0  0  0  0  0  0  0  0
   43.5335    2.4567  -29.2470 H   0  0  0  0  0  0  0  0  0  0  0  0
   44.4499    0.2302  -29.2766 H   0  0  0  0  0  0  0  0  0  0  0  0
   44.9973    0.2213  -26.9965 H   0  0  0  0  0  0  0  0  0  0  0  0
   43.3362    1.5634  -26.1924 H   0  0  0  0  0  0  0  0  0  0  0  0
   41.6317    0.7754  -27.4303 H   0  0  0  0  0  0  0  0  0  0  0  0
   42.5089   -1.1898  -27.5189 H   0  0  0  0  0  0  0  0  0  0  0  0
   43.2484   -1.4438  -25.6296 H   0  0  0  0  0  0  0  0  0  0  0  0
   42.2233   -0.0533  -24.5875 H   0  0  0  0  0  0  0  0  0  0  0  0
   40.3426   -0.3754  -25.6105 H   0  0  0  0  0  0  0  0  0  0  0  0
   40.1746   -2.5180  -25.5549 H   0  0  0  0  0  0  0  0  0  0  0  0
   41.0423   -2.7998  -23.6626 H   0  0  0  0  0  0  0  0  0  0  0  0
   39.8985   -1.1155  -22.7248 H   0  0  0  0  0  0  0  0  0  0  0  0
   37.9770   -1.7081  -23.6194 H   0  0  0  0  0  0  0  0  0  0  0  0
   37.9457   -3.7230  -23.2079 H   0  0  0  0  0  0  0  0  0  0  0  0
   38.9085   -3.1580  -21.1491 H   0  0  0  0  0  0  0  0  0  0  0  0
   37.3503   -2.1294  -20.0811 H   0  0  0  0  0  0  0  0  0  0  0  0
   35.4235   -2.8825  -20.8621 H   0  0  0  0  0  0  0  0  0  0  0  0
   35.9642   -5.2499  -21.1487 H   0  0  0  0  0  0  0  0  0  0  0  0
   36.6323   -5.9833  -19.0384 H   0  0  0  0  0  0  0  0  0  0  0  0
   35.2111   -4.4780  -17.8911 H   0  0  0  0  0  0  0  0  0  0  0  0
   33.2215   -5.0110  -18.8445 H   0  0  0  0  0  0  0  0  0  0  0  0
   32.1659   -7.0527  -18.1492 H   0  0  0  0  0  0  0  0  0  0  0  0
   34.5068   -7.0463  -19.6558 H   0  0  0  0  0  0  0  0  0  0  0  0
   33.9101   -8.7623  -21.6983 H   0  0  0  0  0  0  0  0  0  0  0  0
   35.6939  -11.7175  -19.8435 H   0  0  0  0  0  0  0  0  0  0  0  0
   38.2220   -8.7813  -20.2038 H   0  0  0  0  0  0  0  0  0  0  0  0
   39.7355   -7.3837  -17.2682 H   0  0  0  0  0  0  0  0  0  0  0  0
   37.8635   -5.2623  -20.2558 H   0  0  0  0  0  0  0  0  0  0  0  0
   37.4637   -5.4403  -23.0980 H   0  0  0  0  0  0  0  0  0  0  0  0
   34.4515   -6.6421  -21.8936 H   0  0  0  0  0  0  0  0  0  0  0  0
   35.3363   -5.7327  -25.3392 H   0  0  0  0  0  0  0  0  0  0  0  0
   32.0379   -7.3639  -25.0563 H   0  0  0  0  0  0  0  0  0  0  0  0
   32.9614   -6.7103  -28.6023 H   0  0  0  0  0  0  0  0  0  0  0  0
   29.6311   -8.4377  -28.2865 H   0  0  0  0  0  0  0  0  0  0  0  0
   30.5327   -7.4939  -31.7726 H   0  0  0  0  0  0  0  0  0  0  0  0
   27.2621   -9.5576  -31.6314 H   0  0  0  0  0  0  0  0  0  0  0  0
   27.9621   -8.2583  -35.3602 H   0  0  0  0  0  0  0  0  0  0  0  0
   27.4530  -10.7698  -37.6245 H   0  0  0  0  0  0  0  0  0  0  0  0
   26.4091   -7.3844  -36.7301 H   0  0  0  0  0  0  0  0  0  0  0  0
   28.3304   -7.5232  -39.8668 H   0  0  0  0  0  0  0  0  0  0  0  0
   27.8211   -5.2384  -42.5407 H   0  0  0  0  0  0  0  0  0  0  0  0
   30.9309   -5.7440  -40.2529 H   0  0  0  0  0  0  0  0  0  0  0  0
   31.4572   -7.1604  -43.8806 H   0  0  0  0  0  0  0  0  0  0  0  0
   34.3045   -7.5941  -41.3820 H   0  0  0  0  0  0  0  0  0  0  0  0
   34.5191   -8.7365  -44.8649 H   0  0  0  0  0  0  0  0  0  0  0  0
   37.2522  -10.1026  -46.2491 H   0  0  0  0  0  0  0  0  0  0  0  0
   36.3767   -8.0824  -49.5558 H   0  0  0  0  0  0  0  0  0  0  0  0
   36.7331   -9.6188  -49.1998 H   0  0  0  0  0  0  0  0  0  0  0  0
  1  2  1  0  0  0  0
  1 82  1  0  0  0  0
  2  3  1  0  0  0  0
  3  4  1  0  0  0  0
  3 83  1  0  0  0  0
  3 84  1  0  0  0  0
  4  5  1  0  0  0  0
  4 85  1  0  0  0  0
  4 86  1  0  0  0  0
  5  6  1  0  0  0  0
  5 87  1  0  0  0  0
  5 88  1  0  0  0  0
  6  7  1  0  0  0  0
  6 89  1  0  0  0  0
  7  8  1  0  0  0  0
  7 90  1  0  0  0  0
  8  9  1  0  0  0  0
  8 91  1  0  0  0  0
  9 10  1  0  0  0  0
  9 92  1  0  0  0  0
 10 11  1  0  0  0  0
 10 93  1  0  0  0  0
 11 12  1  0  0  0  0
 11 94  1  0  0  0  0
 12 13  1  0  0  0  0
 12 95  1  0  0  0  0
 13 14  1  0  0  0  0
 13 96  1  0  0  0  0
 14 15  1  0  0  0  0
 14 97  1  0  0  0  0
 15 16  1  0  0  0  0
 15 98  1  0  0  0  0
 16 17  1  0  0  0  0
 16 99  1  0  0  0  0
 17 18  1  0  0  0  0
 17100  1  0  0  0  0
 18 19  1  0  0  0  0
 18101  1  0  0  0  0
 19 20  1  0  0  0  0
 19102  1  0  0  0  0
 20 21  1  0  0  0  0
 20103  1  0  0  0  0
 21 22  1  0  0  0  0
 21104  1  0  0  0  0
 22 23  1  0  0  0  0
 22105  1  0  0  0  0
 23 24  1  0  0  0  0
 23106  1  0  0  0  0
 24 25  1  0  0  0  0
 24107  1  0  0  0  0
 25 26  1  0  0  0  0
 25108  1  0  0  0  0
 26 27  1  0  0  0  0
 26109  1  0  0  0  0
 27 28  1  0  0  0  0
 27110  1  0  0  0  0
 28 29  1  0  0  0  0
 28111  1  0  0  0  0
 29 30  1  0  0  0  0
 29112  1  0  0  0  0
 30 31  1  0  0  0  0
 30113  1  0  0  0  0
 31 32  1  0  0  0  0
 31114  1  0  0  0  0
 32 33  1  0  0  0  0
 32115  1  0  0  0  0
 33 34  1  0  0  0  0
 33116  1  0  0  0  0
 34 35  1  0  0  0  0
 35 36  1  0  0  0  0
 35117  1  0  0  0  0
 36 37  1  0  0  0  0
 37 38  1  0  0  0  0
 37118  1  0  0  0  0
 38 39  1  0  0  0  0
 39 40  1  0  0  0  0
 39119  1  0  0  0  0
 40 41  1  0  0  0  0
 41 42  1  0  0  0  0
 41120  1  0  0  0  0
 42 43  1  0  0  0  0
 43 44  1  0  0  0  0
 43121  1  0  0  0  0
 44 45  1  0  0  0  0
 45 46  1  0  0  0  0
 45122  1  0  0  0  0
 46 47  1  0  0  0  0
 47 48  1  0  0  0  0
 47123  1  0  0  0  0
 48 49  1  0  0  0  0
 49 50  1  0  0  0  0
 49124  1  0  0  0  0
 50 51  1  0  0  0  0
 51 52  1  0  0  0  0
 51125  1  0  0  0  0
 52 53  1  0  0  0  0
 53 54  1  0  0  0  0
 53126  1  0  0  0  0
 54 55  1  0  0  0  0
 55 56  1  0  0  0  0
 55127  1  0  0  0  0
 56 57  1  0  0  0  0
 57 58  1  0  0  0  0
 57128  1  0  0  0  0
 58 59  1  0  0  0  0
 59 60  1  0  0  0  0
 59129  1  0  0  0  0
 60 61  1  0  0  0  0
 61 62  1  0  0  0  0
 61130  1  0  0  0  0
 62 63  1  0  0  0  0
 63 64  1  0  0  0  0
 63131  1  0  0  0  0
 64 65  1  0  0  0  0
 65 66  1  0  0  0  0
 65132  1  0  0  0  0
 66 67  1  0  0  0  0
 67 68  1  0  0  0  0
 67133  1  0  0  0  0
 68 69  1  0  0  0  0
 69 70  1  0  0  0  0
 69134  1  0  0  0  0
 70 71  1  0  0  0  0
 71 72  1  0  0  0  0
 71135  1  0  0  0  0
 72 73  1  0  0  0  0
 73 74  1  0  0  0  0
 73136  1  0  0  0  0
 74 75  1  0  0  0  0
 75 76  1  0  0  0  0
 75137  1  0  0  0  0
 76 77  1  0  0  0  0
 77 78  1  0  0  0  0
 77138  1  0  0  0  0
 78 79  1  0  0  0  0
 79 80  1  0  0  0  0
 79139  1  0  0  0  0
 80 81  1  0  0  0  0
 81140  1  0  0  0  0
 81141  1  0  0  0  0
M  END
$$$$
