
 OpenBabel04232217003D

100 99  0  0  0  0  0  0  0  0999 V2000
   27.6454   25.8692    4.6427 O   0  0  0  0  0  0  0  0  0  0  0  0
   28.5745   26.7325    4.5694 C   0  0  0  0  0  0  0  0  0  0  0  0
   29.5613   26.9290    5.6735 C   0  0  0  0  0  0  0  0  0  0  0  0
   30.9927   26.7107    5.1917 C   0  0  0  0  0  0  0  0  0  0  0  0
   32.0075   26.9269    6.3313 C   0  0  0  0  0  0  0  0  0  0  0  0
   33.6922   26.6431    5.6546 S   0  0  0  0  0  0  0  0  0  0  0  0
   34.8204   26.9292    7.0964 C   0  0  0  0  0  0  0  0  0  0  0  0
   36.5540   26.6369    6.5004 S   0  0  0  0  0  0  0  0  0  0  0  0
   37.8179   26.9271    8.1012 S   0  0  0  0  0  0  0  0  0  0  0  0
   37.3212   25.5386    9.5579 S   0  0  0  0  0  0  0  0  0  0  0  0
   37.5785   23.6192    8.7979 S   0  0  0  0  0  0  0  0  0  0  0  0
   37.0398   22.2318   10.2836 S   0  0  0  0  0  0  0  0  0  0  0  0
   37.2665   20.2895    9.4965 S   0  0  0  0  0  0  0  0  0  0  0  0
   36.7442   18.8894   10.9844 S   0  0  0  0  0  0  0  0  0  0  0  0
   36.9683   16.9461   10.1952 S   0  0  0  0  0  0  0  0  0  0  0  0
   36.4430   15.5455   11.6825 S   0  0  0  0  0  0  0  0  0  0  0  0
   36.6646   13.6029   10.8927 S   0  0  0  0  0  0  0  0  0  0  0  0
   36.1373   12.2032   12.3776 S   0  0  0  0  0  0  0  0  0  0  0  0
   36.3516   10.2714   11.5769 S   0  0  0  0  0  0  0  0  0  0  0  0
   35.8598    8.8867   13.0494 S   0  0  0  0  0  0  0  0  0  0  0  0
   36.0781    6.9730   12.2764 S   0  0  0  0  0  0  0  0  0  0  0  0
   38.0652    6.7514   11.7413 S   0  0  0  0  0  0  0  0  0  0  0  0
   39.0323    6.9416   13.2907 C   0  0  0  0  0  0  0  0  0  0  0  0
   38.6571    5.8922   14.3209 C   0  0  0  0  0  0  0  0  0  0  0  0
   39.4638    6.0661   15.6064 C   0  0  0  0  0  0  0  0  0  0  0  0
   39.0682    5.0076   16.6342 C   0  0  0  0  0  0  0  0  0  0  0  0
   39.8679    5.1598   17.9152 C   0  0  0  0  0  0  0  0  0  0  0  0
   39.4098    3.8891   19.1593 S   0  0  0  0  0  0  0  0  0  0  0  0
   39.8251    2.0587   18.2868 S   0  0  0  0  0  0  0  0  0  0  0  0
   41.8639    2.0100   17.9020 S   0  0  0  0  0  0  0  0  0  0  0  0
   42.8961    2.1838   19.6997 S   0  0  0  0  0  0  0  0  0  0  0  0
   44.9581    2.1506   19.2923 S   0  0  0  0  0  0  0  0  0  0  0  0
   46.0009    2.3623   21.1116 S   0  0  0  0  0  0  0  0  0  0  0  0
   48.0717    2.3137   20.7161 S   0  0  0  0  0  0  0  0  0  0  0  0
   49.1148    2.5288   22.5368 S   0  0  0  0  0  0  0  0  0  0  0  0
   51.1862    2.4833   22.1410 S   0  0  0  0  0  0  0  0  0  0  0  0
   52.2295    2.6953   23.9621 S   0  0  0  0  0  0  0  0  0  0  0  0
   54.3009    2.6527   23.5659 S   0  0  0  0  0  0  0  0  0  0  0  0
   55.3441    2.8676   25.3866 S   0  0  0  0  0  0  0  0  0  0  0  0
   57.4155    2.8221   24.9908 S   0  0  0  0  0  0  0  0  0  0  0  0
   58.4587    3.0342   26.8118 S   0  0  0  0  0  0  0  0  0  0  0  0
   60.5302    2.9916   26.4156 S   0  0  0  0  0  0  0  0  0  0  0  0
   61.5734    3.2008   28.2370 S   0  0  0  0  0  0  0  0  0  0  0  0
   63.6448    3.1554   27.8412 S   0  0  0  0  0  0  0  0  0  0  0  0
   64.6880    3.3675   29.6622 S   0  0  0  0  0  0  0  0  0  0  0  0
   66.7594    3.3248   29.2660 S   0  0  0  0  0  0  0  0  0  0  0  0
   67.8027    3.5397   31.0868 S   0  0  0  0  0  0  0  0  0  0  0  0
   69.8741    3.4942   30.6909 S   0  0  0  0  0  0  0  0  0  0  0  0
   70.9173    3.7063   32.5120 S   0  0  0  0  0  0  0  0  0  0  0  0
   72.9887    3.6580   32.1165 S   0  0  0  0  0  0  0  0  0  0  0  0
   74.0320    3.8730   33.9372 S   0  0  0  0  0  0  0  0  0  0  0  0
   76.1034    3.8275   33.5413 S   0  0  0  0  0  0  0  0  0  0  0  0
   77.1466    4.0395   35.3624 S   0  0  0  0  0  0  0  0  0  0  0  0
   79.2180    3.9969   34.9662 S   0  0  0  0  0  0  0  0  0  0  0  0
   80.2612    4.2118   36.7869 S   0  0  0  0  0  0  0  0  0  0  0  0
   82.3326    4.1663   36.3911 S   0  0  0  0  0  0  0  0  0  0  0  0
   83.3759    4.3784   38.2121 S   0  0  0  0  0  0  0  0  0  0  0  0
   85.4473    4.3358   37.8160 S   0  0  0  0  0  0  0  0  0  0  0  0
   86.4905    4.5450   39.6374 S   0  0  0  0  0  0  0  0  0  0  0  0
   88.5619    4.5052   39.2409 S   0  0  0  0  0  0  0  0  0  0  0  0
   89.6051    4.7173   41.0619 S   0  0  0  0  0  0  0  0  0  0  0  0
   91.6766    4.6745   40.6658 S   0  0  0  0  0  0  0  0  0  0  0  0
   92.7198    4.8839   42.4871 S   0  0  0  0  0  0  0  0  0  0  0  0
   94.7912    4.8384   42.0913 S   0  0  0  0  0  0  0  0  0  0  0  0
   95.8344    5.0449   43.9130 S   0  0  0  0  0  0  0  0  0  0  0  0
   97.9058    5.0023   43.5168 S   0  0  0  0  0  0  0  0  0  0  0  0
   98.9491    5.2059   45.3388 S   0  0  0  0  0  0  0  0  0  0  0  0
  101.0205    5.1661   44.9423 S   0  0  0  0  0  0  0  0  0  0  0  0
  102.0637    5.3669   46.7647 S   0  0  0  0  0  0  0  0  0  0  0  0
  104.1351    5.3299   46.3679 S   0  0  0  0  0  0  0  0  0  0  0  0
  105.1783    5.5336   48.1899 S   0  0  0  0  0  0  0  0  0  0  0  0
  107.2498    5.4937   47.7934 S   0  0  0  0  0  0  0  0  0  0  0  0
  108.2930    5.7002   49.6151 S   0  0  0  0  0  0  0  0  0  0  0  0
  110.3643    5.6576   49.2190 S   0  0  0  0  0  0  0  0  0  0  0  0
  111.4071    5.8610   51.0406 S   0  0  0  0  0  0  0  0  0  0  0  0
  113.4767    5.8212   50.6441 S   0  0  0  0  0  0  0  0  0  0  0  0
  114.5091    6.0404   52.4617 S   0  0  0  0  0  0  0  0  0  0  0  0
  116.5587    5.9548   52.0801 S   0  0  0  0  0  0  0  0  0  0  0  0
  117.5760    6.1884   53.8921 S   0  0  0  0  0  0  0  0  0  0  0  0
  117.0686    4.5852   55.0830 S   0  0  0  0  0  0  0  0  0  0  0  0
   28.6325   27.3756    3.6964 H   0  0  0  0  0  0  0  0  0  0  0  0
   29.3280   26.2319    6.4849 H   0  0  0  0  0  0  0  0  0  0  0  0
   29.4411   27.9532    6.0485 H   0  0  0  0  0  0  0  0  0  0  0  0
   31.1989   27.3999    4.3617 H   0  0  0  0  0  0  0  0  0  0  0  0
   31.0813   25.6912    4.7916 H   0  0  0  0  0  0  0  0  0  0  0  0
   31.7914   26.2246    7.1443 H   0  0  0  0  0  0  0  0  0  0  0  0
   31.9094   27.9505    6.7099 H   0  0  0  0  0  0  0  0  0  0  0  0
   34.5914   26.2090    7.8856 H   0  0  0  0  0  0  0  0  0  0  0  0
   34.7122   27.9555    7.4538 H   0  0  0  0  0  0  0  0  0  0  0  0
   38.8720    7.9513   13.6877 H   0  0  0  0  0  0  0  0  0  0  0  0
   40.1036    6.8638   13.0519 H   0  0  0  0  0  0  0  0  0  0  0  0
   38.8365    4.8918   13.9139 H   0  0  0  0  0  0  0  0  0  0  0  0
   37.5944    5.9733   14.5587 H   0  0  0  0  0  0  0  0  0  0  0  0
   39.2889    7.0665   16.0201 H   0  0  0  0  0  0  0  0  0  0  0  0
   40.5347    5.9841   15.3847 H   0  0  0  0  0  0  0  0  0  0  0  0
   39.2439    4.0185   16.2062 H   0  0  0  0  0  0  0  0  0  0  0  0
   37.9988    5.0962   16.8515 H   0  0  0  0  0  0  0  0  0  0  0  0
   39.6950    6.1571   18.3467 H   0  0  0  0  0  0  0  0  0  0  0  0
   40.9434    5.0877   17.7133 H   0  0  0  0  0  0  0  0  0  0  0  0
  117.7578    4.7857   56.2291 H   0  0  0  0  0  0  0  0  0  0  0  0
  1  2  2  0  0  0  0
  2  3  1  0  0  0  0
  2 81  1  0  0  0  0
  3  4  1  0  0  0  0
  3 82  1  0  0  0  0
  3 83  1  0  0  0  0
  4  5  1  0  0  0  0
  4 84  1  0  0  0  0
  4 85  1  0  0  0  0
  5  6  1  0  0  0  0
  5 86  1  0  0  0  0
  5 87  1  0  0  0  0
  6  7  1  0  0  0  0
  7  8  1  0  0  0  0
  7 88  1  0  0  0  0
  7 89  1  0  0  0  0
  8  9  1  0  0  0  0
  9 10  1  0  0  0  0
 10 11  1  0  0  0  0
 11 12  1  0  0  0  0
 12 13  1  0  0  0  0
 13 14  1  0  0  0  0
 14 15  1  0  0  0  0
 15 16  1  0  0  0  0
 16 17  1  0  0  0  0
 17 18  1  0  0  0  0
 18 19  1  0  0  0  0
 19 20  1  0  0  0  0
 20 21  1  0  0  0  0
 21 22  1  0  0  0  0
 22 23  1  0  0  0  0
 23 24  1  0  0  0  0
 23 90  1  0  0  0  0
 23 91  1  0  0  0  0
 24 25  1  0  0  0  0
 24 92  1  0  0  0  0
 24 93  1  0  0  0  0
 25 26  1  0  0  0  0
 25 94  1  0  0  0  0
 25 95  1  0  0  0  0
 26 27  1  0  0  0  0
 26 96  1  0  0  0  0
 26 97  1  0  0  0  0
 27 28  1  0  0  0  0
 27 98  1  0  0  0  0
 27 99  1  0  0  0  0
 28 29  1  0  0  0  0
 29 30  1  0  0  0  0
 30 31  1  0  0  0  0
 31 32  1  0  0  0  0
 32 33  1  0  0  0  0
 33 34  1  0  0  0  0
 34 35  1  0  0  0  0
 35 36  1  0  0  0  0
 36 37  1  0  0  0  0
 37 38  1  0  0  0  0
 38 39  1  0  0  0  0
 39 40  1  0  0  0  0
 40 41  1  0  0  0  0
 41 42  1  0  0  0  0
 42 43  1  0  0  0  0
 43 44  1  0  0  0  0
 44 45  1  0  0  0  0
 45 46  1  0  0  0  0
 46 47  1  0  0  0  0
 47 48  1  0  0  0  0
 48 49  1  0  0  0  0
 49 50  1  0  0  0  0
 50 51  1  0  0  0  0
 51 52  1  0  0  0  0
 52 53  1  0  0  0  0
 53 54  1  0  0  0  0
 54 55  1  0  0  0  0
 55 56  1  0  0  0  0
 56 57  1  0  0  0  0
 57 58  1  0  0  0  0
 58 59  1  0  0  0  0
 59 60  1  0  0  0  0
 60 61  1  0  0  0  0
 61 62  1  0  0  0  0
 62 63  1  0  0  0  0
 63 64  1  0  0  0  0
 64 65  1  0  0  0  0
 65 66  1  0  0  0  0
 66 67  1  0  0  0  0
 67 68  1  0  0  0  0
 68 69  1  0  0  0  0
 69 70  1  0  0  0  0
 70 71  1  0  0  0  0
 71 72  1  0  0  0  0
 72 73  1  0  0  0  0
 73 74  1  0  0  0  0
 74 75  1  0  0  0  0
 75 76  1  0  0  0  0
 76 77  1  0  0  0  0
 77 78  1  0  0  0  0
 78 79  1  0  0  0  0
 79 80  1  0  0  0  0
 80100  1  0  0  0  0
M  END
$$$$
