
 OpenBabel04232216593D

154154  0  0  1  0  0  0  0  0999 V2000
   12.8332   37.3910   20.0264 O   0  0  0  0  0  0  0  0  0  0  0  0
   13.4198   37.2206   18.9777 C   0  0  0  0  0  0  0  0  0  0  0  0
   12.6993   36.6031   17.8463 C   0  0  0  0  0  0  0  0  0  0  0  0
   13.2641   37.9564   17.7068 C   0  0  3  0  0  0  0  0  0  0  0  0
   14.5393   38.3267   16.6101 S   0  0  0  0  0  0  0  0  0  0  0  0
   14.4981   37.3341   14.7822 S   0  0  0  0  0  0  0  0  0  0  0  0
   12.7942   36.8481   13.7368 S   0  0  0  0  0  0  0  0  0  0  0  0
   11.6956   38.1949   12.6213 S   0  0  0  0  0  0  0  0  0  0  0  0
   12.5870   39.3382   11.4690 C   0  0  0  0  0  0  0  0  0  0  0  0
   11.8168   39.5327    9.6907 S   0  0  0  0  0  0  0  0  0  0  0  0
    9.9428   40.1225    9.6950 C   0  0  0  0  0  0  0  0  0  0  0  0
    9.5491   41.5911    9.2686 C   0  0  0  0  0  0  0  0  0  0  0  0
    8.1624   41.9921    9.2388 O   0  0  0  0  0  0  0  0  0  0  0  0
    7.4968   42.2809   10.4770 C   0  0  0  0  0  0  0  0  0  0  0  0
    8.1469   43.1486   11.4125 O   0  0  0  0  0  0  0  0  0  0  0  0
    8.0619   44.5478   11.2306 C   0  0  0  0  0  0  0  0  0  0  0  0
    8.4515   45.3250   12.3774 O   0  0  0  0  0  0  0  0  0  0  0  0
    9.7776   45.1313   12.8737 C   0  0  0  0  0  0  0  0  0  0  0  0
   10.8264   45.4914   11.9845 O   0  0  0  0  0  0  0  0  0  0  0  0
   12.0673   44.8724   12.3639 C   0  0  0  0  0  0  0  0  0  0  0  0
   12.0079   43.4580   12.6163 O   0  0  0  0  0  0  0  0  0  0  0  0
   11.2935   42.8005   11.6004 C   0  0  0  0  0  0  0  0  0  0  0  0
   10.8685   41.4745   11.8297 O   0  0  0  0  0  0  0  0  0  0  0  0
   10.0143   40.9721   12.8367 C   0  0  0  0  0  0  0  0  0  0  0  0
    8.6610   41.3489   12.8811 O   0  0  0  0  0  0  0  0  0  0  0  0
    7.9992   40.8709   14.0510 C   0  0  0  0  0  0  0  0  0  0  0  0
    8.3278   41.5900   15.2540 O   0  0  0  0  0  0  0  0  0  0  0  0
    8.6663   42.9366   14.9453 C   0  0  0  0  0  0  0  0  0  0  0  0
    9.2838   43.7161   15.9699 O   0  0  0  0  0  0  0  0  0  0  0  0
   10.6730   43.4193   16.1513 C   0  0  0  0  0  0  0  0  0  0  0  0
   11.6122   43.9894   15.2554 O   0  0  0  0  0  0  0  0  0  0  0  0
   12.9494   43.5320   15.5869 C   0  0  0  0  0  0  0  0  0  0  0  0
   13.0684   42.1255   15.8773 O   0  0  0  0  0  0  0  0  0  0  0  0
   12.8255   41.3645   14.7089 C   0  0  0  0  0  0  0  0  0  0  0  0
   12.4282   40.0163   14.8727 O   0  0  0  0  0  0  0  0  0  0  0  0
   11.5479   39.6428   15.9144 C   0  0  0  0  0  0  0  0  0  0  0  0
   10.1585   39.7033   15.6697 O   0  0  0  0  0  0  0  0  0  0  0  0
    9.4015   39.1179   16.7482 C   0  0  0  0  0  0  0  0  0  0  0  0
    9.6657   39.6746   18.0350 O   0  0  0  0  0  0  0  0  0  0  0  0
    9.4208   41.0656   18.0079 C   0  0  0  0  0  0  0  0  0  0  0  0
    9.9568   41.7371   19.1179 O   0  0  0  0  0  0  0  0  0  0  0  0
   11.3650   41.6263   19.1789 C   0  0  0  0  0  0  0  0  0  0  0  0
   11.8689   42.5952   20.0574 O   0  0  0  0  0  0  0  0  0  0  0  0
   11.2586   42.4456   21.3228 C   0  0  0  0  0  0  0  0  0  0  0  0
   11.8100   43.4025   22.2274 O   0  0  0  0  0  0  0  0  0  0  0  0
   13.1662   43.1128   22.5282 C   0  0  0  0  0  0  0  0  0  0  0  0
   14.0874   43.3746   21.4824 O   0  0  0  0  0  0  0  0  0  0  0  0
   15.3351   42.7299   21.7482 C   0  0  0  0  0  0  0  0  0  0  0  0
   15.3073   41.3130   21.9846 O   0  0  0  0  0  0  0  0  0  0  0  0
   14.7631   40.5398   20.9301 C   0  0  0  0  0  0  0  0  0  0  0  0
   14.7258   39.1411   21.2156 O   0  0  0  0  0  0  0  0  0  0  0  0
   13.8402   38.7642   22.2710 C   0  0  0  0  0  0  0  0  0  0  0  0
   12.4466   38.9798   22.0881 O   0  0  0  0  0  0  0  0  0  0  0  0
   11.6996   38.5269   23.2329 C   0  0  0  0  0  0  0  0  0  0  0  0
   11.9903   39.2080   24.4799 O   0  0  0  0  0  0  0  0  0  0  0  0
   11.9665   40.6031   24.2620 C   0  0  0  0  0  0  0  0  0  0  0  0
   12.4933   41.4711   25.2467 O   0  0  0  0  0  0  0  0  0  0  0  0
   13.8928   41.4251   25.5166 C   0  0  0  0  0  0  0  0  0  0  0  0
   14.8315   41.6282   24.4832 O   0  0  0  0  0  0  0  0  0  0  0  0
   16.2061   41.3722   24.8641 C   0  0  0  0  0  0  0  0  0  0  0  0
   16.5078   40.0874   25.4441 O   0  0  0  0  0  0  0  0  0  0  0  0
   16.1536   39.0588   24.5369 C   0  0  0  0  0  0  0  0  0  0  0  0
   16.3532   37.7058   24.9072 O   0  0  0  0  0  0  0  0  0  0  0  0
   15.3521   37.1928   25.7933 C   0  0  0  0  0  0  0  0  0  0  0  0
   14.0082   37.3860   25.3516 O   0  0  0  0  0  0  0  0  0  0  0  0
   13.0356   36.8986   26.2900 C   0  0  0  0  0  0  0  0  0  0  0  0
   13.1204   37.4408   27.6153 O   0  0  0  0  0  0  0  0  0  0  0  0
   13.0541   38.8571   27.5665 C   0  0  0  0  0  0  0  0  0  0  0  0
   13.3267   39.5373   28.7827 O   0  0  0  0  0  0  0  0  0  0  0  0
   14.6693   39.4052   29.2498 C   0  0  0  0  0  0  0  0  0  0  0  0
   15.6938   40.0272   28.4841 O   0  0  0  0  0  0  0  0  0  0  0  0
   15.5122   41.4173   28.2975 C   0  0  0  0  0  0  0  0  0  0  0  0
   15.8625   42.2935   29.3588 O   0  0  0  0  0  0  0  0  0  0  0  0
   15.7621   43.6517   28.8696 C   0  0  0  0  0  0  0  0  0  0  0  0
   14.4595   43.9270   28.3688 O   0  0  0  0  0  0  0  0  0  0  0  0
   14.2787   45.2884   28.0062 C   0  0  0  0  0  0  0  0  0  0  0  0
   15.1436   45.7131   26.9587 O   0  0  0  0  0  0  0  0  0  0  0  0
   14.8031   45.1312   25.7075 C   0  0  0  0  0  0  0  0  0  0  0  0
   11.6412   36.4954   18.0089 H   0  0  0  0  0  0  0  0  0  0  0  0
   13.2037   35.7265   17.4703 H   0  0  0  0  0  0  0  0  0  0  0  0
   12.6561   38.8111   17.9413 H   0  0  0  0  0  0  0  0  0  0  0  0
   13.6157   38.9894   11.3383 H   0  0  0  0  0  0  0  0  0  0  0  0
   12.7070   40.3259   11.9260 H   0  0  0  0  0  0  0  0  0  0  0  0
    9.4045   39.7551   10.5666 H   0  0  0  0  0  0  0  0  0  0  0  0
    9.5440   39.5172    8.8710 H   0  0  0  0  0  0  0  0  0  0  0  0
    9.9056   41.7508    8.2459 H   0  0  0  0  0  0  0  0  0  0  0  0
   10.0497   42.3604    9.8108 H   0  0  0  0  0  0  0  0  0  0  0  0
    7.3096   41.3124   10.9577 H   0  0  0  0  0  0  0  0  0  0  0  0
    6.4946   42.6707   10.2529 H   0  0  0  0  0  0  0  0  0  0  0  0
    7.0176   44.8200   11.0587 H   0  0  0  0  0  0  0  0  0  0  0  0
    8.6663   44.8474   10.3732 H   0  0  0  0  0  0  0  0  0  0  0  0
    9.8728   44.0862   13.1018 H   0  0  0  0  0  0  0  0  0  0  0  0
    9.8947   45.6779   13.8101 H   0  0  0  0  0  0  0  0  0  0  0  0
   12.4697   45.3597   13.2593 H   0  0  0  0  0  0  0  0  0  0  0  0
   12.7912   45.0477   11.5593 H   0  0  0  0  0  0  0  0  0  0  0  0
   11.9653   42.7615   10.7314 H   0  0  0  0  0  0  0  0  0  0  0  0
   10.4478   43.3896   11.2848 H   0  0  0  0  0  0  0  0  0  0  0  0
   10.4570   41.0763   13.8012 H   0  0  0  0  0  0  0  0  0  0  0  0
    9.9313   39.9151   12.6258 H   0  0  0  0  0  0  0  0  0  0  0  0
    8.1976   39.7966   14.1805 H   0  0  0  0  0  0  0  0  0  0  0  0
    6.9212   40.9537   13.8879 H   0  0  0  0  0  0  0  0  0  0  0  0
    7.7696   43.4493   14.5896 H   0  0  0  0  0  0  0  0  0  0  0  0
    9.4044   42.8781   14.1776 H   0  0  0  0  0  0  0  0  0  0  0  0
   10.8007   42.3601   16.0030 H   0  0  0  0  0  0  0  0  0  0  0  0
   10.9325   43.7231   17.1670 H   0  0  0  0  0  0  0  0  0  0  0  0
   13.2972   44.0863   16.4639 H   0  0  0  0  0  0  0  0  0  0  0  0
   13.6256   43.7842   14.7602 H   0  0  0  0  0  0  0  0  0  0  0  0
   13.7305   41.3609   14.0930 H   0  0  0  0  0  0  0  0  0  0  0  0
   12.0609   41.8490   14.1371 H   0  0  0  0  0  0  0  0  0  0  0  0
   11.7981   40.2031   16.8094 H   0  0  0  0  0  0  0  0  0  0  0  0
   11.7161   38.5804   16.0503 H   0  0  0  0  0  0  0  0  0  0  0  0
    9.6064   38.0444   16.8019 H   0  0  0  0  0  0  0  0  0  0  0  0
    8.3343   39.2305   16.5269 H   0  0  0  0  0  0  0  0  0  0  0  0
    8.3628   41.3131   17.9026 H   0  0  0  0  0  0  0  0  0  0  0  0
    9.9208   41.4481   17.1524 H   0  0  0  0  0  0  0  0  0  0  0  0
   11.8423   41.8530   18.2222 H   0  0  0  0  0  0  0  0  0  0  0  0
   11.6714   40.6189   19.4797 H   0  0  0  0  0  0  0  0  0  0  0  0
   11.3793   41.4097   21.7235 H   0  0  0  0  0  0  0  0  0  0  0  0
   10.1871   42.6649   21.2594 H   0  0  0  0  0  0  0  0  0  0  0  0
   13.2486   42.0676   22.6976 H   0  0  0  0  0  0  0  0  0  0  0  0
   13.4311   43.6317   23.4524 H   0  0  0  0  0  0  0  0  0  0  0  0
   15.7703   43.2040   22.6373 H   0  0  0  0  0  0  0  0  0  0  0  0
   16.0097   42.9409   20.9180 H   0  0  0  0  0  0  0  0  0  0  0  0
   15.4201   40.6548   20.0663 H   0  0  0  0  0  0  0  0  0  0  0  0
   13.7610   40.8687   20.6668 H   0  0  0  0  0  0  0  0  0  0  0  0
   14.0937   39.3848   23.1001 H   0  0  0  0  0  0  0  0  0  0  0  0
   14.0330   37.7103   22.5082 H   0  0  0  0  0  0  0  0  0  0  0  0
   11.8583   37.4530   23.3828 H   0  0  0  0  0  0  0  0  0  0  0  0
   10.6381   38.6685   23.0040 H   0  0  0  0  0  0  0  0  0  0  0  0
   10.9422   40.9225   24.0469 H   0  0  0  0  0  0  0  0  0  0  0  0
   12.5506   40.7425   23.3878 H   0  0  0  0  0  0  0  0  0  0  0  0
   14.1222   40.4697   25.9230 H   0  0  0  0  0  0  0  0  0  0  0  0
   14.0449   42.1973   26.2551 H   0  0  0  0  0  0  0  0  0  0  0  0
   16.5378   42.1572   25.5496 H   0  0  0  0  0  0  0  0  0  0  0  0
   16.8348   41.4990   23.9756 H   0  0  0  0  0  0  0  0  0  0  0  0
   16.6646   39.2195   23.5721 H   0  0  0  0  0  0  0  0  0  0  0  0
   15.0985   39.1788   24.4212 H   0  0  0  0  0  0  0  0  0  0  0  0
   15.5106   37.6504   26.7682 H   0  0  0  0  0  0  0  0  0  0  0  0
   15.5208   36.1145   25.8641 H   0  0  0  0  0  0  0  0  0  0  0  0
   13.1234   35.8118   26.3548 H   0  0  0  0  0  0  0  0  0  0  0  0
   12.0329   37.1028   25.8889 H   0  0  0  0  0  0  0  0  0  0  0  0
   12.0735   39.1869   27.2031 H   0  0  0  0  0  0  0  0  0  0  0  0
   13.8153   39.1451   26.8758 H   0  0  0  0  0  0  0  0  0  0  0  0
   14.9158   38.3429   29.3156 H   0  0  0  0  0  0  0  0  0  0  0  0
   14.7117   39.8271   30.2540 H   0  0  0  0  0  0  0  0  0  0  0  0
   14.4742   41.5983   28.0377 H   0  0  0  0  0  0  0  0  0  0  0  0
   16.1661   41.6763   27.4664 H   0  0  0  0  0  0  0  0  0  0  0  0
   16.5147   43.8252   28.1010 H   0  0  0  0  0  0  0  0  0  0  0  0
   15.9780   44.3150   29.7273 H   0  0  0  0  0  0  0  0  0  0  0  0
   14.4561   45.9265   28.8783 H   0  0  0  0  0  0  0  0  0  0  0  0
   13.2323   45.4349   27.7110 H   0  0  0  0  0  0  0  0  0  0  0  0
   15.4752   45.5296   24.9426 H   0  0  0  0  0  0  0  0  0  0  0  0
   13.7714   45.3592   25.4226 H   0  0  0  0  0  0  0  0  0  0  0  0
   14.9545   44.0540   25.7469 H   0  0  0  0  0  0  0  0  0  0  0  0
  1  2  2  0  0  0  0
  2  3  1  0  0  0  0
  2  4  1  0  0  0  0
  3  4  1  0  0  0  0
  3 79  1  0  0  0  0
  3 80  1  0  0  0  0
  4  5  1  0  0  0  0
  4 81  1  0  0  0  0
  5  6  1  0  0  0  0
  6  7  1  0  0  0  0
  7  8  1  0  0  0  0
  8  9  1  0  0  0  0
  9 10  1  0  0  0  0
  9 82  1  0  0  0  0
  9 83  1  0  0  0  0
 10 11  1  0  0  0  0
 11 12  1  0  0  0  0
 11 84  1  0  0  0  0
 11 85  1  0  0  0  0
 12 13  1  0  0  0  0
 12 86  1  0  0  0  0
 12 87  1  0  0  0  0
 13 14  1  0  0  0  0
 14 15  1  0  0  0  0
 14 88  1  0  0  0  0
 14 89  1  0  0  0  0
 15 16  1  0  0  0  0
 16 17  1  0  0  0  0
 16 90  1  0  0  0  0
 16 91  1  0  0  0  0
 17 18  1  0  0  0  0
 18 19  1  0  0  0  0
 18 92  1  0  0  0  0
 18 93  1  0  0  0  0
 19 20  1  0  0  0  0
 20 21  1  0  0  0  0
 20 94  1  0  0  0  0
 20 95  1  0  0  0  0
 21 22  1  0  0  0  0
 22 23  1  0  0  0  0
 22 96  1  0  0  0  0
 22 97  1  0  0  0  0
 23 24  1  0  0  0  0
 24 25  1  0  0  0  0
 24 98  1  0  0  0  0
 24 99  1  0  0  0  0
 25 26  1  0  0  0  0
 26 27  1  0  0  0  0
 26100  1  0  0  0  0
 26101  1  0  0  0  0
 27 28  1  0  0  0  0
 28 29  1  0  0  0  0
 28102  1  0  0  0  0
 28103  1  0  0  0  0
 29 30  1  0  0  0  0
 30 31  1  0  0  0  0
 30104  1  0  0  0  0
 30105  1  0  0  0  0
 31 32  1  0  0  0  0
 32 33  1  0  0  0  0
 32106  1  0  0  0  0
 32107  1  0  0  0  0
 33 34  1  0  0  0  0
 34 35  1  0  0  0  0
 34108  1  0  0  0  0
 34109  1  0  0  0  0
 35 36  1  0  0  0  0
 36 37  1  0  0  0  0
 36110  1  0  0  0  0
 36111  1  0  0  0  0
 37 38  1  0  0  0  0
 38 39  1  0  0  0  0
 38112  1  0  0  0  0
 38113  1  0  0  0  0
 39 40  1  0  0  0  0
 40 41  1  0  0  0  0
 40114  1  0  0  0  0
 40115  1  0  0  0  0
 41 42  1  0  0  0  0
 42 43  1  0  0  0  0
 42116  1  0  0  0  0
 42117  1  0  0  0  0
 43 44  1  0  0  0  0
 44 45  1  0  0  0  0
 44118  1  0  0  0  0
 44119  1  0  0  0  0
 45 46  1  0  0  0  0
 46 47  1  0  0  0  0
 46120  1  0  0  0  0
 46121  1  0  0  0  0
 47 48  1  0  0  0  0
 48 49  1  0  0  0  0
 48122  1  0  0  0  0
 48123  1  0  0  0  0
 49 50  1  0  0  0  0
 50 51  1  0  0  0  0
 50124  1  0  0  0  0
 50125  1  0  0  0  0
 51 52  1  0  0  0  0
 52 53  1  0  0  0  0
 52126  1  0  0  0  0
 52127  1  0  0  0  0
 53 54  1  0  0  0  0
 54 55  1  0  0  0  0
 54128  1  0  0  0  0
 54129  1  0  0  0  0
 55 56  1  0  0  0  0
 56 57  1  0  0  0  0
 56130  1  0  0  0  0
 56131  1  0  0  0  0
 57 58  1  0  0  0  0
 58 59  1  0  0  0  0
 58132  1  0  0  0  0
 58133  1  0  0  0  0
 59 60  1  0  0  0  0
 60 61  1  0  0  0  0
 60134  1  0  0  0  0
 60135  1  0  0  0  0
 61 62  1  0  0  0  0
 62 63  1  0  0  0  0
 62136  1  0  0  0  0
 62137  1  0  0  0  0
 63 64  1  0  0  0  0
 64 65  1  0  0  0  0
 64138  1  0  0  0  0
 64139  1  0  0  0  0
 65 66  1  0  0  0  0
 66 67  1  0  0  0  0
 66140  1  0  0  0  0
 66141  1  0  0  0  0
 67 68  1  0  0  0  0
 68 69  1  0  0  0  0
 68142  1  0  0  0  0
 68143  1  0  0  0  0
 69 70  1  0  0  0  0
 70 71  1  0  0  0  0
 70144  1  0  0  0  0
 70145  1  0  0  0  0
 71 72  1  0  0  0  0
 72 73  1  0  0  0  0
 72146  1  0  0  0  0
 72147  1  0  0  0  0
 73 74  1  0  0  0  0
 74 75  1  0  0  0  0
 74148  1  0  0  0  0
 74149  1  0  0  0  0
 75 76  1  0  0  0  0
 76 77  1  0  0  0  0
 76150  1  0  0  0  0
 76151  1  0  0  0  0
 77 78  1  0  0  0  0
 78152  1  0  0  0  0
 78153  1  0  0  0  0
 78154  1  0  0  0  0
M  END
$$$$
