
 OpenBabel04232216433D

 79 79  0  0  0  0  0  0  0  0999 V2000
   17.9920    2.8906    8.2288 C   0  0  0  0  0  0  0  0  0  0  0  0
   15.6011    2.2873    7.1629 C   0  0  0  0  0  0  0  0  0  0  0  0
   13.5103    1.9574    6.2680 C   0  0  0  0  0  0  0  0  0  0  0  0
   11.2316    1.3846    5.0876 C   0  0  0  0  0  0  0  0  0  0  0  0
    9.5712    1.1040    3.8473 C   0  0  0  0  0  0  0  0  0  0  0  0
    8.6432    1.3642    1.9800 C   0  0  0  0  0  0  0  0  0  0  0  0
    9.3445    2.3870    2.3686 C   0  0  0  0  0  0  0  0  0  0  0  0
   10.8231    2.1053    2.4674 C   0  0  0  0  0  0  0  0  0  0  0  0
   11.2144    2.9841    3.4350 C   0  0  0  0  0  0  0  0  0  0  0  0
   12.3746    2.1847    3.4623 C   0  0  0  0  0  0  0  0  0  0  0  0
   13.1181    3.0189    4.1599 C   0  0  0  0  0  0  0  0  0  0  0  0
   14.7780    2.8163    4.2768 C   0  0  0  0  0  0  0  0  0  0  0  0
   14.9330    3.8431    5.3835 C   0  0  0  0  0  0  0  0  0  0  0  0
   15.9343    4.6913    6.7053 C   0  0  0  0  0  0  0  0  0  0  0  0
   16.9538    5.1546    7.4922 N   0  0  0  0  0  0  0  0  0  0  0  0
   18.4036    5.1293    7.0329 C   0  0  0  0  0  0  0  0  0  0  0  0
   19.1824    5.6831    8.0524 C   0  0  0  0  0  0  0  0  0  0  0  0
   20.5718    5.3364    8.0045 C   0  0  0  0  0  0  0  0  0  0  0  0
   20.9569    5.5756    9.2768 C   0  0  0  0  0  0  0  0  0  0  0  0
   22.2184    5.6675    8.7464 C   0  0  0  0  0  0  0  0  0  0  0  0
   22.9231    6.4585    9.4859 C   0  0  0  0  0  0  0  0  0  0  0  0
   24.3027    6.1107    9.0565 C   0  0  0  0  0  0  0  0  0  0  0  0
   24.7956    6.7322   10.2205 C   0  0  0  0  0  0  0  0  0  0  0  0
   26.2380    6.6085    9.9999 C   0  0  0  0  0  0  0  0  0  0  0  0
   26.4972    7.4352   11.3546 C   0  0  0  0  0  0  0  0  0  0  0  0
   27.9455    7.7828   12.0179 C   0  0  0  0  0  0  0  0  0  0  0  0
   28.5448    8.2048   13.2489 C   0  0  0  0  0  0  0  0  0  0  0  0
   30.0511    8.4773   13.3371 C   0  0  0  0  0  0  0  0  0  0  0  0
   30.6302    8.8740   14.5931 C   0  0  0  0  0  0  0  0  0  0  0  0
   31.8080    9.0993   13.7671 C   0  0  0  0  0  0  0  0  0  0  0  0
   32.3197    9.5919   14.9187 C   0  0  0  0  0  0  0  0  0  0  0  0
   33.8042    9.8465   15.0696 C   0  0  0  0  0  0  0  0  0  0  0  0
   34.2049    9.3272   16.2663 C   0  0  0  0  0  0  0  0  0  0  0  0
   33.1979    7.7647   15.2338 C   0  0  0  0  0  0  0  0  0  0  0  0
   31.5456    6.8573   14.2789 C   0  0  0  0  0  0  0  0  0  0  0  0
   29.3080    6.1197   13.3859 C   0  0  0  0  0  0  0  0  0  0  0  0
   27.1787    5.4025   12.3704 C   0  0  0  0  0  0  0  0  0  0  0  0
   24.7571    4.7853   11.3730 C   0  0  0  0  0  0  0  0  0  0  0  0
   22.6358    4.0118   10.4161 C   0  0  0  0  0  0  0  0  0  0  0  0
   20.1806    3.4244    9.2297 C   0  0  0  0  0  0  0  0  0  0  0  0
   16.4834    3.1453    7.5913 H   0  0  0  0  0  0  0  0  0  0  0  0
   13.9783    2.5500    6.4971 H   0  0  0  0  0  0  0  0  0  0  0  0
   11.8513    1.9736    5.4798 H   0  0  0  0  0  0  0  0  0  0  0  0
    9.6391    1.3122    4.4308 H   0  0  0  0  0  0  0  0  0  0  0  0
    7.8836    1.0900    3.1899 H   0  0  0  0  0  0  0  0  0  0  0  0
    8.1274    0.5643    1.0694 H   0  0  0  0  0  0  0  0  0  0  0  0
    8.7139    2.7506    3.5340 H   0  0  0  0  0  0  0  0  0  0  0  0
   10.3751    1.1333    2.1835 H   0  0  0  0  0  0  0  0  0  0  0  0
   10.6117    3.3020    4.6044 H   0  0  0  0  0  0  0  0  0  0  0  0
   13.0182    1.5898    2.9428 H   0  0  0  0  0  0  0  0  0  0  0  0
   12.4918    3.6245    5.1740 H   0  0  0  0  0  0  0  0  0  0  0  0
   14.4755    1.9885    3.4504 H   0  0  0  0  0  0  0  0  0  0  0  0
   14.0625    4.0736    6.2672 H   0  0  0  0  0  0  0  0  0  0  0  0
   16.6073    4.0419    6.0649 H   0  0  0  0  0  0  0  0  0  0  0  0
   18.6345    4.0127    6.3430 H   0  0  0  0  0  0  0  0  0  0  0  0
   18.4508    5.4759    9.0603 H   0  0  0  0  0  0  0  0  0  0  0  0
   20.8491    4.4045    7.2777 H   0  0  0  0  0  0  0  0  0  0  0  0
   20.5941    6.0825   10.2758 H   0  0  0  0  0  0  0  0  0  0  0  0
   22.7828    4.8684    8.2144 H   0  0  0  0  0  0  0  0  0  0  0  0
   22.5226    6.5204   10.6871 H   0  0  0  0  0  0  0  0  0  0  0  0
   24.8101    5.0602    8.1750 H   0  0  0  0  0  0  0  0  0  0  0  0
   24.3521    7.1065   11.5373 H   0  0  0  0  0  0  0  0  0  0  0  0
   26.4235    5.4902    9.0370 H   0  0  0  0  0  0  0  0  0  0  0  0
   26.1319    7.6072   12.6633 H   0  0  0  0  0  0  0  0  0  0  0  0
   28.6976    7.1325   11.2634 H   0  0  0  0  0  0  0  0  0  0  0  0
   28.5511    8.4339   14.3331 H   0  0  0  0  0  0  0  0  0  0  0  0
   30.7581    7.7915   12.3184 H   0  0  0  0  0  0  0  0  0  0  0  0
   30.6775    9.3076   15.8682 H   0  0  0  0  0  0  0  0  0  0  0  0
   32.3184    8.1903   12.8751 H   0  0  0  0  0  0  0  0  0  0  0  0
   32.6596    9.3571   15.9570 H   0  0  0  0  0  0  0  0  0  0  0  0
   34.2591    9.1193   14.0418 H   0  0  0  0  0  0  0  0  0  0  0  0
   35.4202   10.0310   16.9938 H   0  0  0  0  0  0  0  0  0  0  0  0
   34.8428    8.3609   15.5224 H   0  0  0  0  0  0  0  0  0  0  0  0
   33.1611    7.4428   14.6093 H   0  0  0  0  0  0  0  0  0  0  0  0
   30.8888    6.7007   13.5375 H   0  0  0  0  0  0  0  0  0  0  0  0
   28.8165    6.0734   12.4385 H   0  0  0  0  0  0  0  0  0  0  0  0
   26.2680    5.3645   11.3022 H   0  0  0  0  0  0  0  0  0  0  0  0
   23.9586    4.6505   10.1276 H   0  0  0  0  0  0  0  0  0  0  0  0
   19.1091    3.7565    8.2172 H   0  0  0  0  0  0  0  0  0  0  0  0
  1  2  1  0  0  0  0
  1 40  2  3  0  0  0
  1 41  1  0  0  0  0
  2  3  2  3  0  0  0
  2 42  1  0  0  0  0
  3  4  1  0  0  0  0
  3 43  1  0  0  0  0
  4  5  2  3  0  0  0
  4 44  1  0  0  0  0
  5  6  1  0  0  0  0
  5 45  1  0  0  0  0
  6  7  2  3  0  0  0
  6 46  1  0  0  0  0
  7  8  1  0  0  0  0
  7 47  1  0  0  0  0
  8  9  2  3  0  0  0
  8 48  1  0  0  0  0
  9 10  1  0  0  0  0
  9 49  1  0  0  0  0
 10 11  2  3  0  0  0
 10 50  1  0  0  0  0
 11 12  1  0  0  0  0
 11 51  1  0  0  0  0
 12 13  2  3  0  0  0
 12 52  1  0  0  0  0
 13 14  1  0  0  0  0
 13 53  1  0  0  0  0
 14 15  2  3  0  0  0
 14 54  1  0  0  0  0
 15 16  1  0  0  0  0
 16 17  2  3  0  0  0
 16 55  1  0  0  0  0
 17 18  1  0  0  0  0
 17 56  1  0  0  0  0
 18 19  2  3  0  0  0
 18 57  1  0  0  0  0
 19 20  1  0  0  0  0
 19 58  1  0  0  0  0
 20 21  2  3  0  0  0
 20 59  1  0  0  0  0
 21 22  1  0  0  0  0
 21 60  1  0  0  0  0
 22 23  2  3  0  0  0
 22 61  1  0  0  0  0
 23 24  1  0  0  0  0
 23 62  1  0  0  0  0
 24 25  2  3  0  0  0
 24 63  1  0  0  0  0
 25 26  1  0  0  0  0
 25 64  1  0  0  0  0
 26 27  2  3  0  0  0
 26 65  1  0  0  0  0
 27 28  1  0  0  0  0
 27 66  1  0  0  0  0
 28 29  2  3  0  0  0
 28 67  1  0  0  0  0
 29 30  1  0  0  0  0
 29 68  1  0  0  0  0
 30 31  2  3  0  0  0
 30 69  1  0  0  0  0
 31 32  1  0  0  0  0
 31 70  1  0  0  0  0
 32 33  2  3  0  0  0
 32 71  1  0  0  0  0
 33 34  1  0  0  0  0
 33 72  1  0  0  0  0
 34 35  2  3  0  0  0
 34 73  1  0  0  0  0
 35 36  1  0  0  0  0
 35 74  1  0  0  0  0
 36 37  2  3  0  0  0
 36 75  1  0  0  0  0
 37 38  1  0  0  0  0
 37 76  1  0  0  0  0
 38 39  2  3  0  0  0
 38 77  1  0  0  0  0
 39 40  1  0  0  0  0
 39 78  1  0  0  0  0
 40 79  1  0  0  0  0
M  END
$$$$
