
 OpenBabel04232216503D

126126  0  0  0  0  0  0  0  0999 V2000
   13.5416    7.2768    4.2329 C   0  0  0  0  0  0  0  0  0  0  0  0
   15.8434    7.8857    5.0272 C   0  0  0  0  0  0  0  0  0  0  0  0
   13.9784    6.3977    4.4034 C   0  0  0  0  0  0  0  0  0  0  0  0
   12.0010    5.0743    3.6700 C   0  0  0  0  0  0  0  0  0  0  0  0
   10.0606    4.1173    2.9528 C   0  0  0  0  0  0  0  0  0  0  0  0
    8.6501    2.9488    1.7021 C   0  0  0  0  0  0  0  0  0  0  0  0
    8.2957    3.8475    0.6102 C   0  0  0  0  0  0  0  0  0  0  0  0
    9.8054    4.4594    0.7157 C   0  0  0  0  0  0  0  0  0  0  0  0
   10.2969    5.8076    1.3796 C   0  0  0  0  0  0  0  0  0  0  0  0
   11.8947    5.3233    1.2696 C   0  0  0  0  0  0  0  0  0  0  0  0
   12.8480    6.2496    1.5475 C   0  0  0  0  0  0  0  0  0  0  0  0
   14.0706    5.5082    1.9589 C   0  0  0  0  0  0  0  0  0  0  0  0
   14.9718    6.3776    2.3554 C   0  0  0  0  0  0  0  0  0  0  0  0
   16.2695    6.2820    2.7010 C   0  0  0  0  0  0  0  0  0  0  0  0
   16.7396    7.5316    3.0324 C   0  0  0  0  0  0  0  0  0  0  0  0
   15.7033    9.0587    3.6144 C   0  0  0  0  0  0  0  0  0  0  0  0
   16.0064   10.3531    3.1173 C   0  0  0  0  0  0  0  0  0  0  0  0
   15.5520   10.0726    1.7818 C   0  0  0  0  0  0  0  0  0  0  0  0
   15.9098   11.2702    1.0107 C   0  0  0  0  0  0  0  0  0  0  0  0
   15.5313   10.9589   -0.3951 C   0  0  0  0  0  0  0  0  0  0  0  0
   15.8410   12.1415   -1.2652 C   0  0  0  0  0  0  0  0  0  0  0  0
   15.4558   11.8392   -2.6924 C   0  0  0  0  0  0  0  0  0  0  0  0
   15.7656   13.0255   -3.5761 C   0  0  0  0  0  0  0  0  0  0  0  0
   15.3808   12.7264   -5.0076 C   0  0  0  0  0  0  0  0  0  0  0  0
   15.6921   13.9127   -5.8950 C   0  0  0  0  0  0  0  0  0  0  0  0
   15.3066   13.6095   -7.3213 C   0  0  0  0  0  0  0  0  0  0  0  0
   18.2059    7.5171    3.2171 C   0  0  0  0  0  0  0  0  0  0  0  0
   18.8396    8.8812    3.4766 C   0  0  0  0  0  0  0  0  0  0  0  0
   20.0619    8.8071    3.8924 C   0  0  0  0  0  0  0  0  0  0  0  0
   20.2000   10.1458    4.1856 C   0  0  0  0  0  0  0  0  0  0  0  0
   21.7026    9.7981    4.2742 C   0  0  0  0  0  0  0  0  0  0  0  0
   22.2065   11.1043    4.5223 C   0  0  0  0  0  0  0  0  0  0  0  0
   23.5659   11.3194    4.8269 C   0  0  0  0  0  0  0  0  0  0  0  0
   23.2901   13.0660    5.2349 C   0  0  0  0  0  0  0  0  0  0  0  0
   25.2189   12.4178    5.2946 C   0  0  0  0  0  0  0  0  0  0  0  0
   26.3868   13.1771    5.9466 C   0  0  0  0  0  0  0  0  0  0  0  0
   27.7613   13.7169    5.9340 C   0  0  0  0  0  0  0  0  0  0  0  0
   27.4921   15.5951    6.0706 C   0  0  0  0  0  0  0  0  0  0  0  0
   29.3324   14.8476    6.2328 C   0  0  0  0  0  0  0  0  0  0  0  0
   30.7218   15.2708    7.0390 C   0  0  0  0  0  0  0  0  0  0  0  0
   32.0069   16.1274    6.7919 C   0  0  0  0  0  0  0  0  0  0  0  0
   31.6531   18.0627    7.2067 C   0  0  0  0  0  0  0  0  0  0  0  0
   31.5049   16.8908    7.8009 N   0  0  0  0  0  0  0  0  0  0  0  0
   29.2529   16.1720    7.8343 C   0  0  0  0  0  0  0  0  0  0  0  0
   26.9839   14.8543    7.6843 C   0  0  0  0  0  0  0  0  0  0  0  0
   24.4859   13.2719    7.1969 C   0  0  0  0  0  0  0  0  0  0  0  0
   22.4585   12.0739    6.8413 C   0  0  0  0  0  0  0  0  0  0  0  0
   20.1026   10.6292    6.2424 C   0  0  0  0  0  0  0  0  0  0  0  0
   18.0768    9.2329    5.7191 C   0  0  0  0  0  0  0  0  0  0  0  0
   11.9927    6.7029    3.5809 H   0  0  0  0  0  0  0  0  0  0  0  0
   11.8817    6.6955    4.0781 H   0  0  0  0  0  0  0  0  0  0  0  0
   12.2373    6.5859    3.2673 H   0  0  0  0  0  0  0  0  0  0  0  0
   12.8967    5.1904    3.8554 H   0  0  0  0  0  0  0  0  0  0  0  0
   10.8054    3.8778    3.0006 H   0  0  0  0  0  0  0  0  0  0  0  0
    8.4505    3.6875    2.5321 H   0  0  0  0  0  0  0  0  0  0  0  0
    7.8124    1.7300    0.8201 H   0  0  0  0  0  0  0  0  0  0  0  0
    7.4834    4.5397    1.2430 H   0  0  0  0  0  0  0  0  0  0  0  0
   10.2082    3.0902    0.8817 H   0  0  0  0  0  0  0  0  0  0  0  0
    9.9105    6.7618    2.4211 H   0  0  0  0  0  0  0  0  0  0  0  0
   12.0357    4.0150    1.4267 H   0  0  0  0  0  0  0  0  0  0  0  0
   12.2435    7.2763    2.0674 H   0  0  0  0  0  0  0  0  0  0  0  0
   14.1134    4.3928    1.9130 H   0  0  0  0  0  0  0  0  0  0  0  0
   14.8527    7.4382    2.5444 H   0  0  0  0  0  0  0  0  0  0  0  0
   16.5162    5.2847    2.3875 H   0  0  0  0  0  0  0  0  0  0  0  0
   15.8871    9.3353    4.8124 H   0  0  0  0  0  0  0  0  0  0  0  0
   14.5812    8.8849    3.5906 H   0  0  0  0  0  0  0  0  0  0  0  0
   17.0549   10.3412    2.9815 H   0  0  0  0  0  0  0  0  0  0  0  0
   15.4676   11.1565    3.6460 H   0  0  0  0  0  0  0  0  0  0  0  0
   14.4885    9.8509    1.8354 H   0  0  0  0  0  0  0  0  0  0  0  0
   16.1268    9.1878    1.4763 H   0  0  0  0  0  0  0  0  0  0  0  0
   16.9828   11.4802    1.1015 H   0  0  0  0  0  0  0  0  0  0  0  0
   15.3624   12.1290    1.4048 H   0  0  0  0  0  0  0  0  0  0  0  0
   14.4637   10.7227   -0.4332 H   0  0  0  0  0  0  0  0  0  0  0  0
   16.0865   10.0779   -0.7334 H   0  0  0  0  0  0  0  0  0  0  0  0
   16.9095   12.3682   -1.2077 H   0  0  0  0  0  0  0  0  0  0  0  0
   15.2868   13.0135   -0.9065 H   0  0  0  0  0  0  0  0  0  0  0  0
   14.3871   11.6101   -2.7435 H   0  0  0  0  0  0  0  0  0  0  0  0
   16.0086   10.9629   -3.0441 H   0  0  0  0  0  0  0  0  0  0  0  0
   16.8342   13.2535   -3.5230 H   0  0  0  0  0  0  0  0  0  0  0  0
   15.2128   13.9008   -3.2224 H   0  0  0  0  0  0  0  0  0  0  0  0
   14.3118   12.4988   -5.0602 H   0  0  0  0  0  0  0  0  0  0  0  0
   15.9322   11.8494   -5.3600 H   0  0  0  0  0  0  0  0  0  0  0  0
   16.7604   14.1394   -5.8449 H   0  0  0  0  0  0  0  0  0  0  0  0
   15.1397   14.7889   -5.5451 H   0  0  0  0  0  0  0  0  0  0  0  0
   15.8614   12.7418   -7.6858 H   0  0  0  0  0  0  0  0  0  0  0  0
   15.5301   14.4632   -7.9626 H   0  0  0  0  0  0  0  0  0  0  0  0
   14.2378   13.3925   -7.3854 H   0  0  0  0  0  0  0  0  0  0  0  0
   18.4247    7.3338    2.1926 H   0  0  0  0  0  0  0  0  0  0  0  0
   18.3940    6.6499    3.9158 H   0  0  0  0  0  0  0  0  0  0  0  0
   18.3379   10.0633    3.9326 H   0  0  0  0  0  0  0  0  0  0  0  0
   20.6750    8.0399    3.5810 H   0  0  0  0  0  0  0  0  0  0  0  0
   19.3784    9.9018    5.0849 H   0  0  0  0  0  0  0  0  0  0  0  0
   19.8843   11.1863    3.8116 H   0  0  0  0  0  0  0  0  0  0  0  0
   22.2170    9.9077    3.3492 H   0  0  0  0  0  0  0  0  0  0  0  0
   22.1562    9.3062    5.2229 H   0  0  0  0  0  0  0  0  0  0  0  0
   22.0325   10.8510    5.7213 H   0  0  0  0  0  0  0  0  0  0  0  0
   21.7561   12.2021    4.0337 H   0  0  0  0  0  0  0  0  0  0  0  0
   24.1564   11.3787    3.9472 H   0  0  0  0  0  0  0  0  0  0  0  0
   24.0559   10.6622    5.6869 H   0  0  0  0  0  0  0  0  0  0  0  0
   22.8199   13.6686    6.6381 H   0  0  0  0  0  0  0  0  0  0  0  0
   23.6679   13.9458    4.9056 H   0  0  0  0  0  0  0  0  0  0  0  0
   25.8292   12.6823    4.4754 H   0  0  0  0  0  0  0  0  0  0  0  0
   25.7517   11.7924    6.2021 H   0  0  0  0  0  0  0  0  0  0  0  0
   26.2667   12.7527    7.4249 H   0  0  0  0  0  0  0  0  0  0  0  0
   26.1827   14.3199    5.2481 H   0  0  0  0  0  0  0  0  0  0  0  0
   28.2174   13.8816    4.9781 H   0  0  0  0  0  0  0  0  0  0  0  0
   28.2536   13.2601    6.9005 H   0  0  0  0  0  0  0  0  0  0  0  0
   26.6888   16.2216    7.2673 H   0  0  0  0  0  0  0  0  0  0  0  0
   27.9344   16.5591    6.0297 H   0  0  0  0  0  0  0  0  0  0  0  0
   29.5311   15.1777    5.2069 H   0  0  0  0  0  0  0  0  0  0  0  0
   29.8086   14.3470    7.3317 H   0  0  0  0  0  0  0  0  0  0  0  0
   30.4755   15.3852    8.6063 H   0  0  0  0  0  0  0  0  0  0  0  0
   30.3852   16.3709    6.3056 H   0  0  0  0  0  0  0  0  0  0  0  0
   32.4171   16.2343    5.7994 H   0  0  0  0  0  0  0  0  0  0  0  0
   32.4501   15.3811    7.9085 H   0  0  0  0  0  0  0  0  0  0  0  0
   31.5651   18.0780    8.7682 H   0  0  0  0  0  0  0  0  0  0  0  0
   31.9801   19.0826    7.0969 H   0  0  0  0  0  0  0  0  0  0  0  0
   33.0802   17.4112    7.3682 H   0  0  0  0  0  0  0  0  0  0  0  0
   30.9167   16.7148    8.3045 H   0  0  0  0  0  0  0  0  0  0  0  0
   30.1536   17.6855    8.0645 H   0  0  0  0  0  0  0  0  0  0  0  0
   28.2506   15.9288    7.4559 H   0  0  0  0  0  0  0  0  0  0  0  0
   28.5377   15.4234    7.9308 H   0  0  0  0  0  0  0  0  0  0  0  0
   26.0367   14.1002    7.1653 H   0  0  0  0  0  0  0  0  0  0  0  0
   23.9199   12.8050    6.5603 H   0  0  0  0  0  0  0  0  0  0  0  0
   20.7573   11.6718    5.4337 H   0  0  0  0  0  0  0  0  0  0  0  0
   17.4038    8.7072    4.5304 H   0  0  0  0  0  0  0  0  0  0  0  0
  1  2  1  0  0  0  0
  1 50  1  0  0  0  0
  1 51  1  0  0  0  0
  1 52  1  0  0  0  0
  2  3  2  3  0  0  0
  2 49  1  0  0  0  0
  3  4  1  0  0  0  0
  3 53  1  0  0  0  0
  4  5  2  3  0  0  0
  4 54  1  0  0  0  0
  5  6  1  0  0  0  0
  5 55  1  0  0  0  0
  6  7  2  3  0  0  0
  6 56  1  0  0  0  0
  7  8  1  0  0  0  0
  7 57  1  0  0  0  0
  8  9  2  3  0  0  0
  8 58  1  0  0  0  0
  9 10  1  0  0  0  0
  9 59  1  0  0  0  0
 10 11  2  3  0  0  0
 10 60  1  0  0  0  0
 11 12  1  0  0  0  0
 11 61  1  0  0  0  0
 12 13  2  3  0  0  0
 12 62  1  0  0  0  0
 13 14  1  0  0  0  0
 13 63  1  0  0  0  0
 14 15  2  3  0  0  0
 14 64  1  0  0  0  0
 15 16  1  0  0  0  0
 15 27  1  0  0  0  0
 16 17  1  0  0  0  0
 16 65  1  0  0  0  0
 16 66  1  0  0  0  0
 17 18  1  0  0  0  0
 17 67  1  0  0  0  0
 17 68  1  0  0  0  0
 18 19  1  0  0  0  0
 18 69  1  0  0  0  0
 18 70  1  0  0  0  0
 19 20  1  0  0  0  0
 19 71  1  0  0  0  0
 19 72  1  0  0  0  0
 20 21  1  0  0  0  0
 20 73  1  0  0  0  0
 20 74  1  0  0  0  0
 21 22  1  0  0  0  0
 21 75  1  0  0  0  0
 21 76  1  0  0  0  0
 22 23  1  0  0  0  0
 22 77  1  0  0  0  0
 22 78  1  0  0  0  0
 23 24  1  0  0  0  0
 23 79  1  0  0  0  0
 23 80  1  0  0  0  0
 24 25  1  0  0  0  0
 24 81  1  0  0  0  0
 24 82  1  0  0  0  0
 25 26  1  0  0  0  0
 25 83  1  0  0  0  0
 25 84  1  0  0  0  0
 26 85  1  0  0  0  0
 26 86  1  0  0  0  0
 26 87  1  0  0  0  0
 27 28  1  0  0  0  0
 27 88  1  0  0  0  0
 27 89  1  0  0  0  0
 28 29  2  3  0  0  0
 28 90  1  0  0  0  0
 29 30  1  0  0  0  0
 29 91  1  0  0  0  0
 30 31  1  0  0  0  0
 30 92  1  0  0  0  0
 30 93  1  0  0  0  0
 31 32  1  0  0  0  0
 31 94  1  0  0  0  0
 31 95  1  0  0  0  0
 32 33  1  0  0  0  0
 32 96  1  0  0  0  0
 32 97  1  0  0  0  0
 33 34  1  0  0  0  0
 33 98  1  0  0  0  0
 33 99  1  0  0  0  0
 34 35  1  0  0  0  0
 34100  1  0  0  0  0
 34101  1  0  0  0  0
 35 36  1  0  0  0  0
 35102  1  0  0  0  0
 35103  1  0  0  0  0
 36 37  1  0  0  0  0
 36104  1  0  0  0  0
 36105  1  0  0  0  0
 37 38  1  0  0  0  0
 37106  1  0  0  0  0
 37107  1  0  0  0  0
 38 39  1  0  0  0  0
 38108  1  0  0  0  0
 38109  1  0  0  0  0
 39 40  1  0  0  0  0
 39110  1  0  0  0  0
 39111  1  0  0  0  0
 40 41  1  0  0  0  0
 40112  1  0  0  0  0
 40113  1  0  0  0  0
 41 42  1  0  0  0  0
 41114  1  0  0  0  0
 41115  1  0  0  0  0
 42 43  1  0  0  0  0
 42116  1  0  0  0  0
 42117  1  0  0  0  0
 43 44  1  0  0  0  0
 43118  1  0  0  0  0
 44 45  1  0  0  0  0
 44119  1  0  0  0  0
 44120  1  0  0  0  0
 45 46  1  0  0  0  0
 45121  1  0  0  0  0
 45122  1  0  0  0  0
 46 47  2  3  0  0  0
 46123  1  0  0  0  0
 47 48  1  0  0  0  0
 47124  1  0  0  0  0
 48 49  2  3  0  0  0
 48125  1  0  0  0  0
 49126  1  0  0  0  0
M  END
$$$$
