
 OpenBabel04232216553D

 46 48  0  0  1  0  0  0  0  0999 V2000
    4.7755   -1.9662   -2.1856 C   0  0  0  0  0  0  0  0  0  0  0  0
    5.6894   -0.8059   -2.2995 N   0  0  0  0  0  0  0  0  0  0  0  0
    5.1016    0.3794   -2.6787 C   0  0  0  0  0  0  0  0  0  0  0  0
    5.1731    0.4263   -4.2962 C   0  0  0  0  0  0  0  0  0  0  0  0
    5.6223    1.3473   -5.4930 C   0  0  0  0  0  0  0  0  0  0  0  0
    6.7437    2.3207   -5.2521 C   0  0  3  0  0  0  0  0  0  0  0  0
    6.9380    3.6582   -6.0241 C   0  0  0  0  0  0  0  0  0  0  0  0
    7.2011    4.3303   -4.6502 C   0  0  0  0  0  0  0  0  0  0  0  0
    6.4236    3.1568   -3.9943 C   0  0  3  0  0  0  0  0  0  0  0  0
    4.9225    3.5908   -3.9821 C   0  0  0  0  0  0  0  0  0  0  0  0
    4.8684    1.1309   -1.5456 C   0  0  0  0  0  0  0  0  0  0  0  0
    4.7754    0.4954   -0.1435 C   0  0  0  0  0  0  0  0  0  0  0  0
    5.2066    2.5369   -1.3219 C   0  0  0  0  0  0  0  0  0  0  0  0
    6.5332    2.8082   -1.4116 C   0  0  0  0  0  0  0  0  0  0  0  0
    7.4361    2.3217   -0.2628 C   0  0  0  0  0  0  0  0  0  0  0  0
    7.0794    2.5100   -2.7624 C   0  0  0  0  0  0  0  0  0  0  0  0
    7.9726    1.5044   -2.9400 C   0  0  0  0  0  0  0  0  0  0  0  0
    7.8889   -0.0964   -2.8704 C   0  0  0  0  0  0  0  0  0  0  0  0
    9.2432   -0.6659   -3.2808 C   0  0  0  0  0  0  0  0  0  0  0  0
    7.0197   -1.0341   -2.6089 N   0  0  0  0  0  0  0  0  0  0  0  0
    4.2151   -2.1174   -3.1091 H   0  0  0  0  0  0  0  0  0  0  0  0
    4.0302   -1.7659   -1.4004 H   0  0  0  0  0  0  0  0  0  0  0  0
    5.2992   -2.8764   -1.9152 H   0  0  0  0  0  0  0  0  0  0  0  0
    4.1702    0.0771   -4.5935 H   0  0  0  0  0  0  0  0  0  0  0  0
    5.7836   -0.4566   -4.5490 H   0  0  0  0  0  0  0  0  0  0  0  0
    4.7405    1.8324   -5.9266 H   0  0  0  0  0  0  0  0  0  0  0  0
    5.9590    0.6703   -6.3063 H   0  0  0  0  0  0  0  0  0  0  0  0
    7.7105    1.7982   -5.2746 H   0  0  0  0  0  0  0  0  0  0  0  0
    6.0535    4.0220   -6.5586 H   0  0  0  0  0  0  0  0  0  0  0  0
    7.7905    3.7019   -6.7093 H   0  0  0  0  0  0  0  0  0  0  0  0
    6.7506    5.3258   -4.5359 H   0  0  0  0  0  0  0  0  0  0  0  0
    8.2569    4.4065   -4.3728 H   0  0  0  0  0  0  0  0  0  0  0  0
    4.5737    3.9046   -4.9726 H   0  0  0  0  0  0  0  0  0  0  0  0
    4.7453    4.4503   -3.3301 H   0  0  0  0  0  0  0  0  0  0  0  0
    4.2349    2.7826   -3.7205 H   0  0  0  0  0  0  0  0  0  0  0  0
    3.7888    0.0467   -0.0060 H   0  0  0  0  0  0  0  0  0  0  0  0
    4.8926    1.2197    0.6707 H   0  0  0  0  0  0  0  0  0  0  0  0
    5.5500   -0.2602    0.0298 H   0  0  0  0  0  0  0  0  0  0  0  0
    4.4489    3.2092   -1.6788 H   0  0  0  0  0  0  0  0  0  0  0  0
    6.8920    2.2775    0.6903 H   0  0  0  0  0  0  0  0  0  0  0  0
    8.2716    3.0152   -0.1146 H   0  0  0  0  0  0  0  0  0  0  0  0
    7.8495    1.3121   -0.4083 H   0  0  0  0  0  0  0  0  0  0  0  0
    8.8707    1.6450   -2.3243 H   0  0  0  0  0  0  0  0  0  0  0  0
    9.5196   -0.2425   -4.2501 H   0  0  0  0  0  0  0  0  0  0  0  0
    9.2061   -1.7558   -3.3739 H   0  0  0  0  0  0  0  0  0  0  0  0
    9.9955   -0.3940   -2.5370 H   0  0  0  0  0  0  0  0  0  0  0  0
  1  2  1  0  0  0  0
  1 21  1  0  0  0  0
  1 22  1  0  0  0  0
  1 23  1  0  0  0  0
  2  3  1  0  0  0  0
  2 20  1  0  0  0  0
  3  4  1  0  0  0  0
  3 11  2  0  0  0  0
  4  5  1  0  0  0  0
  4 24  1  0  0  0  0
  4 25  1  0  0  0  0
  5  6  1  0  0  0  0
  5 26  1  0  0  0  0
  5 27  1  0  0  0  0
  6  7  1  0  0  0  0
  6  9  1  0  0  0  0
  6 28  1  0  0  0  0
  7  8  1  0  0  0  0
  7 29  1  0  0  0  0
  7 30  1  0  0  0  0
  8  9  1  0  0  0  0
  8 31  1  0  0  0  0
  8 32  1  0  0  0  0
  9 10  1  0  0  0  0
  9 16  1  0  0  0  0
 10 33  1  0  0  0  0
 10 34  1  0  0  0  0
 10 35  1  0  0  0  0
 11 12  1  0  0  0  0
 11 13  1  0  0  0  0
 12 36  1  0  0  0  0
 12 37  1  0  0  0  0
 12 38  1  0  0  0  0
 13 14  2  0  0  0  0
 13 39  1  0  0  0  0
 14 15  1  0  0  0  0
 14 16  1  0  0  0  0
 15 40  1  0  0  0  0
 15 41  1  0  0  0  0
 15 42  1  0  0  0  0
 16 17  2  0  0  0  0
 17 18  1  0  0  0  0
 17 43  1  0  0  0  0
 18 19  1  0  0  0  0
 18 20  2  0  0  0  0
 19 44  1  0  0  0  0
 19 45  1  0  0  0  0
 19 46  1  0  0  0  0
M  END
$$$$
