
 OpenBabel04232217003D

156155  0  0  1  0  0  0  0  0999 V2000
   29.2619    2.0949  -17.9962 O   0  0  0  0  0  0  0  0  0  0  0  0
   28.7254    2.3441  -19.2870 C   0  0  3  0  0  0  0  0  0  0  0  0
   27.2206    2.1075  -19.2961 C   0  0  0  0  0  0  0  0  0  0  0  0
   29.0275    3.7749  -19.6659 C   0  0  0  0  0  0  0  0  0  0  0  0
   28.5175    3.9469  -20.9640 O   0  0  0  0  0  0  0  0  0  0  0  0
   28.8258    5.3052  -21.3162 O   0  0  0  0  0  0  0  0  0  0  0  0
   28.2629    5.5636  -22.6186 O   0  0  0  0  0  0  0  0  0  0  0  0
   26.8346    5.3352  -22.5669 N   0  0  0  0  0  0  0  0  0  0  0  0
   26.3600    6.1996  -21.5289 O   0  0  0  0  0  0  0  0  0  0  0  0
   24.9466    6.0103  -21.3731 N   0  0  0  0  0  0  0  0  0  0  0  0
   24.5263    6.9227  -20.4053 N   0  0  0  0  0  0  0  0  0  0  0  0
   24.9019    8.2226  -20.8833 O   0  0  0  0  0  0  0  0  0  0  0  0
   24.4174    9.1940  -19.9752 N   0  0  0  0  0  0  0  0  0  0  0  0
   24.7083   10.4643  -20.4862 N   0  0  0  0  0  0  0  0  0  0  0  0
   24.3445   11.4185  -19.5255 N   0  0  0  0  0  0  0  0  0  0  0  0
   25.0409   11.1164  -18.2767 O   0  0  0  0  0  0  0  0  0  0  0  0
   26.4866   11.2534  -18.4589 N   0  0  0  0  0  0  0  0  0  0  0  0
   26.7823   12.5627  -18.9241 N   0  0  0  0  0  0  0  0  0  0  0  0
   26.3261   13.4907  -17.9435 N   0  0  0  0  0  0  0  0  0  0  0  0
   26.9774   13.2026  -16.7101 N   0  0  0  0  0  0  0  0  0  0  0  0
   28.3981   13.3421  -16.8915 N   0  0  0  0  0  0  0  0  0  0  0  0
   28.7374   14.6832  -17.3241 N   0  0  0  0  0  0  0  0  0  0  0  0
   28.2553   15.6339  -16.3704 N   0  0  0  0  0  0  0  0  0  0  0  0
   28.9069   15.3626  -15.1056 N   0  0  0  0  0  0  0  0  0  0  0  0
   30.3382   15.4378  -15.2793 N   0  0  0  0  0  0  0  0  0  0  0  0
   30.6645   16.7230  -15.7550 N   0  0  0  0  0  0  0  0  0  0  0  0
   30.2170   17.6794  -14.7976 N   0  0  0  0  0  0  0  0  0  0  0  0
   30.8477   17.4320  -13.5237 N   0  0  0  0  0  0  0  0  0  0  0  0
   32.2812   17.5081  -13.6259 N   0  0  0  0  0  0  0  0  0  0  0  0
   32.6808   18.8136  -14.0633 N   0  0  0  0  0  0  0  0  0  0  0  0
   32.1928   19.7985  -13.1371 N   0  0  0  0  0  0  0  0  0  0  0  0
   32.7777   19.5502  -11.8408 N   0  0  0  0  0  0  0  0  0  0  0  0
   34.2042   19.5914  -11.9168 N   0  0  0  0  0  0  0  0  0  0  0  0
   34.6184   20.8572  -12.3887 N   0  0  0  0  0  0  0  0  0  0  0  0
   34.1720   21.8740  -11.4748 N   0  0  0  0  0  0  0  0  0  0  0  0
   34.7135   21.6507  -10.1480 N   0  0  0  0  0  0  0  0  0  0  0  0
   36.1458   21.6371  -10.2068 N   0  0  0  0  0  0  0  0  0  0  0  0
   36.5492   22.9025  -10.7130 N   0  0  0  0  0  0  0  0  0  0  0  0
   36.0485   23.9066   -9.8354 N   0  0  0  0  0  0  0  0  0  0  0  0
   36.5603   23.6889   -8.5147 N   0  0  0  0  0  0  0  0  0  0  0  0
   38.0097   23.7155   -8.5025 N   0  0  0  0  0  0  0  0  0  0  0  0
   38.5214   24.9767   -8.9704 N   0  0  0  0  0  0  0  0  0  0  0  0
   38.0160   26.0072   -8.1410 N   0  0  0  0  0  0  0  0  0  0  0  0
   38.5005   25.8023   -6.8006 N   0  0  0  0  0  0  0  0  0  0  0  0
   39.9341   25.7504   -6.7982 N   0  0  0  0  0  0  0  0  0  0  0  0
   40.4690   27.0063   -7.2594 N   0  0  0  0  0  0  0  0  0  0  0  0
   40.0275   28.1023   -6.4195 N   0  0  0  0  0  0  0  0  0  0  0  0
   40.4091   27.8294   -5.0819 N   0  0  0  0  0  0  0  0  0  0  0  0
   41.8359   27.7662   -5.0669 N   0  0  0  0  0  0  0  0  0  0  0  0
   42.3544   28.9957   -5.6020 N   0  0  0  0  0  0  0  0  0  0  0  0
   41.9463   30.1226   -4.7791 N   0  0  0  0  0  0  0  0  0  0  0  0
   42.3411   29.9453   -3.4009 N   0  0  0  0  0  0  0  0  0  0  0  0
   43.7701   29.8988   -3.3276 N   0  0  0  0  0  0  0  0  0  0  0  0
   44.3069   31.0851   -3.8985 N   0  0  0  0  0  0  0  0  0  0  0  0
   43.8693   32.2053   -3.1261 N   0  0  0  0  0  0  0  0  0  0  0  0
   44.2474   32.0309   -1.7494 N   0  0  0  0  0  0  0  0  0  0  0  0
   45.6722   31.9426   -1.6602 N   0  0  0  0  0  0  0  0  0  0  0  0
   46.2396   33.1344   -2.2179 N   0  0  0  0  0  0  0  0  0  0  0  0
   45.7693   34.2763   -1.4829 N   0  0  0  0  0  0  0  0  0  0  0  0
   46.1702   34.2010   -0.0816 N   0  0  0  0  0  0  0  0  0  0  0  0
   47.5926   34.0846    0.0272 N   0  0  0  0  0  0  0  0  0  0  0  0
   48.1854   35.2516   -0.5343 N   0  0  0  0  0  0  0  0  0  0  0  0
   47.7080   36.4138    0.1717 N   0  0  0  0  0  0  0  0  0  0  0  0
   48.0367   36.2904    1.5609 N   0  0  0  0  0  0  0  0  0  0  0  0
   49.4602   36.1585    1.6757 N   0  0  0  0  0  0  0  0  0  0  0  0
   50.0834   37.3305    1.0905 N   0  0  0  0  0  0  0  0  0  0  0  0
   49.6285   38.5293    1.7709 N   0  0  0  0  0  0  0  0  0  0  0  0
   49.9406   38.4589    3.1731 N   0  0  0  0  0  0  0  0  0  0  0  0
   51.3577   38.3298    3.3443 N   0  0  0  0  0  0  0  0  0  0  0  0
   52.0126   39.4666    2.7626 N   0  0  0  0  0  0  0  0  0  0  0  0
   51.5442   40.6708    3.3969 N   0  0  0  0  0  0  0  0  0  0  0  0
   51.8118   40.5685    4.8056 N   0  0  0  0  0  0  0  0  0  0  0  0
   53.2572   40.4062    4.9909 N   0  0  0  0  0  0  0  0  0  0  0  0
   53.9590   41.5479    4.4012 N   0  0  0  0  0  0  0  0  0  0  0  0
   53.5279   42.7804    5.0175 N   0  0  0  0  0  0  0  0  0  0  0  0
   53.7801   42.7408    6.4275 N   0  0  0  0  0  0  0  0  0  0  0  0
   55.1967   42.5685    6.6824 N   0  0  0  0  0  0  0  0  0  0  0  0
   55.9368   43.6479    6.0705 N   0  0  0  0  0  0  0  0  0  0  0  0
   55.5003   44.8998    6.6360 N   0  0  0  0  0  0  0  0  0  0  0  0
   29.0557    1.1735  -17.7763 H   0  0  0  0  0  0  0  0  0  0  0  0
   29.1943    1.6690  -20.0152 H   0  0  0  0  0  0  0  0  0  0  0  0
   26.7293    2.7693  -18.5750 H   0  0  0  0  0  0  0  0  0  0  0  0
   26.9954    1.0771  -19.0129 H   0  0  0  0  0  0  0  0  0  0  0  0
   26.7890    2.2962  -20.2860 H   0  0  0  0  0  0  0  0  0  0  0  0
   30.1036    3.9621  -19.6878 H   0  0  0  0  0  0  0  0  0  0  0  0
   28.5585    4.4789  -18.9683 H   0  0  0  0  0  0  0  0  0  0  0  0
   26.7972    4.4658  -22.0292 H   0  0  0  0  0  0  0  0  0  0  0  0
   24.9265    5.0514  -21.0275 H   0  0  0  0  0  0  0  0  0  0  0  0
   25.1359    6.8206  -19.5902 H   0  0  0  0  0  0  0  0  0  0  0  0
   24.9929    8.9685  -19.1568 H   0  0  0  0  0  0  0  0  0  0  0  0
   24.2676   10.6576  -21.3759 H   0  0  0  0  0  0  0  0  0  0  0  0
   23.3839   11.2546  -19.2499 H   0  0  0  0  0  0  0  0  0  0  0  0
   26.6564   10.6141  -19.2218 H   0  0  0  0  0  0  0  0  0  0  0  0
   26.2713   12.7423  -19.7812 H   0  0  0  0  0  0  0  0  0  0  0  0
   25.3045   13.3736  -17.8490 H   0  0  0  0  0  0  0  0  0  0  0  0
   26.7516   12.2367  -16.4140 H   0  0  0  0  0  0  0  0  0  0  0  0
   28.7217   12.6998  -17.6168 H   0  0  0  0  0  0  0  0  0  0  0  0
   28.2647   14.8443  -18.2219 H   0  0  0  0  0  0  0  0  0  0  0  0
   27.2386   15.4850  -16.2938 H   0  0  0  0  0  0  0  0  0  0  0  0
   28.6963   14.3975  -14.8605 H   0  0  0  0  0  0  0  0  0  0  0  0
   30.6186   14.7697  -15.9889 H   0  0  0  0  0  0  0  0  0  0  0  0
   30.2018   16.9075  -16.6344 H   0  0  0  0  0  0  0  0  0  0  0  0
   29.1916   17.6021  -14.7130 H   0  0  0  0  0  0  0  0  0  0  0  0
   30.6194   16.4918  -13.1956 H   0  0  0  0  0  0  0  0  0  0  0  0
   32.6122   16.8390  -14.3089 H   0  0  0  0  0  0  0  0  0  0  0  0
   32.2488   18.9802  -14.9664 H   0  0  0  0  0  0  0  0  0  0  0  0
   31.1684   19.6897  -13.0897 H   0  0  0  0  0  0  0  0  0  0  0  0
   32.5208   18.6071  -11.5415 H   0  0  0  0  0  0  0  0  0  0  0  0
   34.5319   18.8913  -12.5781 H   0  0  0  0  0  0  0  0  0  0  0  0
   34.2081   20.9939  -13.3231 H   0  0  0  0  0  0  0  0  0  0  0  0
   33.1562   21.7823  -11.4027 H   0  0  0  0  0  0  0  0  0  0  0  0
   34.4056   20.7128   -9.8892 H   0  0  0  0  0  0  0  0  0  0  0  0
   36.3697   20.8938  -10.8798 H   0  0  0  0  0  0  0  0  0  0  0  0
   36.0873   23.0515  -11.6012 H   0  0  0  0  0  0  0  0  0  0  0  0
   35.0388   23.8493   -9.7709 H   0  0  0  0  0  0  0  0  0  0  0  0
   36.2048   22.7778   -8.1883 H   0  0  0  0  0  0  0  0  0  0  0  0
   38.3516   23.0000   -9.1390 H   0  0  0  0  0  0  0  0  0  0  0  0
   38.1585   25.1452   -9.9005 H   0  0  0  0  0  0  0  0  0  0  0  0
   36.9916   25.9349   -8.1886 H   0  0  0  0  0  0  0  0  0  0  0  0
   38.1818   24.8794   -6.4993 H   0  0  0  0  0  0  0  0  0  0  0  0
   40.2313   24.9708   -7.4101 H   0  0  0  0  0  0  0  0  0  0  0  0
   40.1132   27.1674   -8.2024 H   0  0  0  0  0  0  0  0  0  0  0  0
   39.0106   28.0702   -6.4358 H   0  0  0  0  0  0  0  0  0  0  0  0
   40.0290   26.9057   -4.8690 H   0  0  0  0  0  0  0  0  0  0  0  0
   42.1065   27.0510   -5.7309 H   0  0  0  0  0  0  0  0  0  0  0  0
   41.9825   29.0808   -6.5646 H   0  0  0  0  0  0  0  0  0  0  0  0
   40.9292   30.1725   -4.7845 H   0  0  0  0  0  0  0  0  0  0  0  0
   41.9233   29.0632   -3.0780 H   0  0  0  0  0  0  0  0  0  0  0  0
   44.0735   29.1355   -3.9304 H   0  0  0  0  0  0  0  0  0  0  0  0
   43.9691   31.1396   -4.8748 H   0  0  0  0  0  0  0  0  0  0  0  0
   42.8522   32.2415   -3.1473 H   0  0  0  0  0  0  0  0  0  0  0  0
   43.8135   31.1551   -1.4264 H   0  0  0  0  0  0  0  0  0  0  0  0
   45.9827   31.1886   -2.2580 H   0  0  0  0  0  0  0  0  0  0  0  0
   45.8834   33.2256   -3.1648 H   0  0  0  0  0  0  0  0  0  0  0  0
   44.7428   34.2784   -1.5740 H   0  0  0  0  0  0  0  0  0  0  0  0
   45.7735   33.3368    0.2925 H   0  0  0  0  0  0  0  0  0  0  0  0
   47.8536   33.2351   -0.5068 H   0  0  0  0  0  0  0  0  0  0  0  0
   47.8838   35.3216   -1.5093 H   0  0  0  0  0  0  0  0  0  0  0  0
   46.6873   36.4189    0.1109 H   0  0  0  0  0  0  0  0  0  0  0  0
   47.5642   35.4252    1.8733 H   0  0  0  0  0  0  0  0  0  0  0  0
   49.7477   35.3547    1.1163 H   0  0  0  0  0  0  0  0  0  0  0  0
   49.7667   37.4132    0.1278 H   0  0  0  0  0  0  0  0  0  0  0  0
   48.6018   38.5379    1.6390 H   0  0  0  0  0  0  0  0  0  0  0  0
   49.4417   37.6278    3.5366 H   0  0  0  0  0  0  0  0  0  0  0  0
   51.6812   37.5004    2.8414 H   0  0  0  0  0  0  0  0  0  0  0  0
   51.7455   39.5030    1.7789 H   0  0  0  0  0  0  0  0  0  0  0  0
   50.5350   40.6650    3.2658 H   0  0  0  0  0  0  0  0  0  0  0  0
   51.3301   39.7097    5.1023 H   0  0  0  0  0  0  0  0  0  0  0  0
   53.5080   39.5413    4.4737 H   0  0  0  0  0  0  0  0  0  0  0  0
   53.7351   41.5657    3.3855 H   0  0  0  0  0  0  0  0  0  0  0  0
   52.5128   42.8717    4.8671 H   0  0  0  0  0  0  0  0  0  0  0  0
   53.2760   41.9359    6.8065 H   0  0  0  0  0  0  0  0  0  0  0  0
   55.4451   41.7067    6.1864 H   0  0  0  0  0  0  0  0  0  0  0  0
   55.6471   43.6265    5.0869 H   0  0  0  0  0  0  0  0  0  0  0  0
   55.5970   44.7864    7.6418 H   0  0  0  0  0  0  0  0  0  0  0  0
   54.4801   44.8993    6.4871 H   0  0  0  0  0  0  0  0  0  0  0  0
  1  2  1  0  0  0  0
  1 80  1  0  0  0  0
  2  3  1  0  0  0  0
  2  4  1  0  0  0  0
  2 81  1  0  0  0  0
  3 82  1  0  0  0  0
  3 83  1  0  0  0  0
  3 84  1  0  0  0  0
  4  5  1  0  0  0  0
  4 85  1  0  0  0  0
  4 86  1  0  0  0  0
  5  6  1  0  0  0  0
  6  7  1  0  0  0  0
  7  8  1  0  0  0  0
  8  9  1  0  0  0  0
  8 87  1  0  0  0  0
  9 10  1  0  0  0  0
 10 11  1  0  0  0  0
 10 88  1  0  0  0  0
 11 12  1  0  0  0  0
 11 89  1  0  0  0  0
 12 13  1  0  0  0  0
 13 14  1  0  0  0  0
 13 90  1  0  0  0  0
 14 15  1  0  0  0  0
 14 91  1  0  0  0  0
 15 16  1  0  0  0  0
 15 92  1  0  0  0  0
 16 17  1  0  0  0  0
 17 18  1  0  0  0  0
 17 93  1  0  0  0  0
 18 19  1  0  0  0  0
 18 94  1  0  0  0  0
 19 20  1  0  0  0  0
 19 95  1  0  0  0  0
 20 21  1  0  0  0  0
 20 96  1  0  0  0  0
 21 22  1  0  0  0  0
 21 97  1  0  0  0  0
 22 23  1  0  0  0  0
 22 98  1  0  0  0  0
 23 24  1  0  0  0  0
 23 99  1  0  0  0  0
 24 25  1  0  0  0  0
 24100  1  0  0  0  0
 25 26  1  0  0  0  0
 25101  1  0  0  0  0
 26 27  1  0  0  0  0
 26102  1  0  0  0  0
 27 28  1  0  0  0  0
 27103  1  0  0  0  0
 28 29  1  0  0  0  0
 28104  1  0  0  0  0
 29 30  1  0  0  0  0
 29105  1  0  0  0  0
 30 31  1  0  0  0  0
 30106  1  0  0  0  0
 31 32  1  0  0  0  0
 31107  1  0  0  0  0
 32 33  1  0  0  0  0
 32108  1  0  0  0  0
 33 34  1  0  0  0  0
 33109  1  0  0  0  0
 34 35  1  0  0  0  0
 34110  1  0  0  0  0
 35 36  1  0  0  0  0
 35111  1  0  0  0  0
 36 37  1  0  0  0  0
 36112  1  0  0  0  0
 37 38  1  0  0  0  0
 37113  1  0  0  0  0
 38 39  1  0  0  0  0
 38114  1  0  0  0  0
 39 40  1  0  0  0  0
 39115  1  0  0  0  0
 40 41  1  0  0  0  0
 40116  1  0  0  0  0
 41 42  1  0  0  0  0
 41117  1  0  0  0  0
 42 43  1  0  0  0  0
 42118  1  0  0  0  0
 43 44  1  0  0  0  0
 43119  1  0  0  0  0
 44 45  1  0  0  0  0
 44120  1  0  0  0  0
 45 46  1  0  0  0  0
 45121  1  0  0  0  0
 46 47  1  0  0  0  0
 46122  1  0  0  0  0
 47 48  1  0  0  0  0
 47123  1  0  0  0  0
 48 49  1  0  0  0  0
 48124  1  0  0  0  0
 49 50  1  0  0  0  0
 49125  1  0  0  0  0
 50 51  1  0  0  0  0
 50126  1  0  0  0  0
 51 52  1  0  0  0  0
 51127  1  0  0  0  0
 52 53  1  0  0  0  0
 52128  1  0  0  0  0
 53 54  1  0  0  0  0
 53129  1  0  0  0  0
 54 55  1  0  0  0  0
 54130  1  0  0  0  0
 55 56  1  0  0  0  0
 55131  1  0  0  0  0
 56 57  1  0  0  0  0
 56132  1  0  0  0  0
 57 58  1  0  0  0  0
 57133  1  0  0  0  0
 58 59  1  0  0  0  0
 58134  1  0  0  0  0
 59 60  1  0  0  0  0
 59135  1  0  0  0  0
 60 61  1  0  0  0  0
 60136  1  0  0  0  0
 61 62  1  0  0  0  0
 61137  1  0  0  0  0
 62 63  1  0  0  0  0
 62138  1  0  0  0  0
 63 64  1  0  0  0  0
 63139  1  0  0  0  0
 64 65  1  0  0  0  0
 64140  1  0  0  0  0
 65 66  1  0  0  0  0
 65141  1  0  0  0  0
 66 67  1  0  0  0  0
 66142  1  0  0  0  0
 67 68  1  0  0  0  0
 67143  1  0  0  0  0
 68 69  1  0  0  0  0
 68144  1  0  0  0  0
 69 70  1  0  0  0  0
 69145  1  0  0  0  0
 70 71  1  0  0  0  0
 70146  1  0  0  0  0
 71 72  1  0  0  0  0
 71147  1  0  0  0  0
 72 73  1  0  0  0  0
 72148  1  0  0  0  0
 73 74  1  0  0  0  0
 73149  1  0  0  0  0
 74 75  1  0  0  0  0
 74150  1  0  0  0  0
 75 76  1  0  0  0  0
 75151  1  0  0  0  0
 76 77  1  0  0  0  0
 76152  1  0  0  0  0
 77 78  1  0  0  0  0
 77153  1  0  0  0  0
 78 79  1  0  0  0  0
 78154  1  0  0  0  0
 79155  1  0  0  0  0
 79156  1  0  0  0  0
M  END
$$$$
