
 OpenBabel04232217033D

 83 82  0  0  0  0  0  0  0  0999 V2000
    0.9189   -0.0075   -0.0468 S   0  0  0  0  0  0  0  0  0  0  0  0
    2.5957   -0.0317   -0.1120 O   0  0  0  0  0  0  0  0  0  0  0  0
    3.1465    0.4035    1.1777 O   0  0  0  0  0  0  0  0  0  0  0  0
    4.6087    0.4150    1.2096 O   0  0  0  0  0  0  0  0  0  0  0  0
    5.0745    0.9310    2.7354 S   0  0  0  0  0  0  0  0  0  0  0  0
    6.7562    0.9121    2.6801 O   0  0  0  0  0  0  0  0  0  0  0  0
    7.2698    1.4400    4.2410 S   0  0  0  0  0  0  0  0  0  0  0  0
    8.9612    1.4258    4.1992 O   0  0  0  0  0  0  0  0  0  0  0  0
    9.5016    1.9424    5.7269 S   0  0  0  0  0  0  0  0  0  0  0  0
   11.6003    1.9050    5.6163 S   0  0  0  0  0  0  0  0  0  0  0  0
   12.3191    2.5479    7.5176 S   0  0  0  0  0  0  0  0  0  0  0  0
   14.4306    2.5524    7.5307 S   0  0  0  0  0  0  0  0  0  0  0  0
   15.1144    3.1949    9.4308 S   0  0  0  0  0  0  0  0  0  0  0  0
   17.2294    3.1945    9.4297 S   0  0  0  0  0  0  0  0  0  0  0  0
   17.9224    3.8337   11.3201 S   0  0  0  0  0  0  0  0  0  0  0  0
   20.0343    3.8299   11.3088 S   0  0  0  0  0  0  0  0  0  0  0  0
   20.7265    4.4685   13.1974 S   0  0  0  0  0  0  0  0  0  0  0  0
   22.8364    4.4644   13.1852 S   0  0  0  0  0  0  0  0  0  0  0  0
   23.5273    5.1029   15.0735 S   0  0  0  0  0  0  0  0  0  0  0  0
   25.6368    5.0987   15.0610 S   0  0  0  0  0  0  0  0  0  0  0  0
   26.3275    5.7372   16.9492 S   0  0  0  0  0  0  0  0  0  0  0  0
   28.4368    5.7329   16.9366 S   0  0  0  0  0  0  0  0  0  0  0  0
   29.1275    6.3714   18.8248 S   0  0  0  0  0  0  0  0  0  0  0  0
   31.2368    6.3671   18.8122 S   0  0  0  0  0  0  0  0  0  0  0  0
   31.9275    7.0056   20.7003 S   0  0  0  0  0  0  0  0  0  0  0  0
   34.0368    7.0014   20.6878 S   0  0  0  0  0  0  0  0  0  0  0  0
   34.7274    7.6398   22.5759 S   0  0  0  0  0  0  0  0  0  0  0  0
   36.8368    7.6356   22.5633 S   0  0  0  0  0  0  0  0  0  0  0  0
   37.5274    8.2740   24.4515 S   0  0  0  0  0  0  0  0  0  0  0  0
   39.6368    8.2698   24.4389 S   0  0  0  0  0  0  0  0  0  0  0  0
   40.3274    8.9083   26.3270 S   0  0  0  0  0  0  0  0  0  0  0  0
   42.4368    8.9040   26.3145 S   0  0  0  0  0  0  0  0  0  0  0  0
   43.1274    9.5425   28.2026 S   0  0  0  0  0  0  0  0  0  0  0  0
   45.2368    9.5382   28.1901 S   0  0  0  0  0  0  0  0  0  0  0  0
   45.9274   10.1767   30.0782 S   0  0  0  0  0  0  0  0  0  0  0  0
   48.0368   10.1724   30.0656 S   0  0  0  0  0  0  0  0  0  0  0  0
   48.7274   10.8109   31.9538 S   0  0  0  0  0  0  0  0  0  0  0  0
   50.8368   10.8067   31.9412 S   0  0  0  0  0  0  0  0  0  0  0  0
   51.5274   11.4451   33.8293 S   0  0  0  0  0  0  0  0  0  0  0  0
   53.6368   11.4409   33.8168 S   0  0  0  0  0  0  0  0  0  0  0  0
   54.3274   12.0793   35.7049 S   0  0  0  0  0  0  0  0  0  0  0  0
   56.4368   12.0751   35.6924 S   0  0  0  0  0  0  0  0  0  0  0  0
   57.1274   12.7136   37.5805 S   0  0  0  0  0  0  0  0  0  0  0  0
   59.2368   12.7093   37.5679 S   0  0  0  0  0  0  0  0  0  0  0  0
   59.9274   13.3478   39.4561 S   0  0  0  0  0  0  0  0  0  0  0  0
   62.0368   13.3435   39.4435 S   0  0  0  0  0  0  0  0  0  0  0  0
   62.7274   13.9820   41.3316 S   0  0  0  0  0  0  0  0  0  0  0  0
   64.8367   13.9777   41.3191 S   0  0  0  0  0  0  0  0  0  0  0  0
   65.5274   14.6162   43.2072 S   0  0  0  0  0  0  0  0  0  0  0  0
   67.6367   14.6120   43.1947 S   0  0  0  0  0  0  0  0  0  0  0  0
   68.3274   15.2504   45.0828 S   0  0  0  0  0  0  0  0  0  0  0  0
   70.4367   15.2462   45.0702 S   0  0  0  0  0  0  0  0  0  0  0  0
   71.1273   15.8846   46.9584 S   0  0  0  0  0  0  0  0  0  0  0  0
   73.2367   15.8804   46.9458 S   0  0  0  0  0  0  0  0  0  0  0  0
   73.9273   16.5189   48.8339 S   0  0  0  0  0  0  0  0  0  0  0  0
   76.0367   16.5146   48.8214 S   0  0  0  0  0  0  0  0  0  0  0  0
   76.7273   17.1531   50.7095 S   0  0  0  0  0  0  0  0  0  0  0  0
   78.8367   17.1488   50.6970 S   0  0  0  0  0  0  0  0  0  0  0  0
   79.5273   17.7873   52.5851 S   0  0  0  0  0  0  0  0  0  0  0  0
   81.6367   17.7830   52.5725 S   0  0  0  0  0  0  0  0  0  0  0  0
   82.3273   18.4215   54.4607 S   0  0  0  0  0  0  0  0  0  0  0  0
   84.4367   18.4173   54.4481 S   0  0  0  0  0  0  0  0  0  0  0  0
   85.1273   19.0557   56.3362 S   0  0  0  0  0  0  0  0  0  0  0  0
   87.2367   19.0515   56.3237 S   0  0  0  0  0  0  0  0  0  0  0  0
   87.9273   19.6899   58.2118 S   0  0  0  0  0  0  0  0  0  0  0  0
   90.0367   19.6857   58.1993 S   0  0  0  0  0  0  0  0  0  0  0  0
   90.7273   20.3242   60.0874 S   0  0  0  0  0  0  0  0  0  0  0  0
   92.8367   20.3199   60.0748 S   0  0  0  0  0  0  0  0  0  0  0  0
   93.5273   20.9584   61.9630 S   0  0  0  0  0  0  0  0  0  0  0  0
   95.6366   20.9541   61.9504 S   0  0  0  0  0  0  0  0  0  0  0  0
   96.3272   21.5926   63.8385 S   0  0  0  0  0  0  0  0  0  0  0  0
   98.4363   21.5883   63.8258 S   0  0  0  0  0  0  0  0  0  0  0  0
   99.1263   22.2265   65.7135 S   0  0  0  0  0  0  0  0  0  0  0  0
  101.2341   22.2221   65.7002 S   0  0  0  0  0  0  0  0  0  0  0  0
  101.9206   22.8610   67.5862 S   0  0  0  0  0  0  0  0  0  0  0  0
  104.0222   22.8507   67.5699 S   0  0  0  0  0  0  0  0  0  0  0  0
  104.7048   23.4902   69.4474 S   0  0  0  0  0  0  0  0  0  0  0  0
  106.7924   23.5187   69.3864 S   0  0  0  0  0  0  0  0  0  0  0  0
  107.4787   24.0019   71.2869 S   0  0  0  0  0  0  0  0  0  0  0  0
  109.5479   24.0958   71.1789 S   0  0  0  0  0  0  0  0  0  0  0  0
  110.1854   22.1507   70.9626 S   0  0  0  0  0  0  0  0  0  0  0  0
    0.6254   -0.4288   -1.2913 H   0  0  0  0  0  0  0  0  0  0  0  0
  111.5231   22.3021   70.9393 H   0  0  0  0  0  0  0  0  0  0  0  0
  1  2  1  0  0  0  0
  1 82  1  0  0  0  0
  2  3  1  0  0  0  0
  3  4  1  0  0  0  0
  4  5  1  0  0  0  0
  5  6  1  0  0  0  0
  6  7  1  0  0  0  0
  7  8  1  0  0  0  0
  8  9  1  0  0  0  0
  9 10  1  0  0  0  0
 10 11  1  0  0  0  0
 11 12  1  0  0  0  0
 12 13  1  0  0  0  0
 13 14  1  0  0  0  0
 14 15  1  0  0  0  0
 15 16  1  0  0  0  0
 16 17  1  0  0  0  0
 17 18  1  0  0  0  0
 18 19  1  0  0  0  0
 19 20  1  0  0  0  0
 20 21  1  0  0  0  0
 21 22  1  0  0  0  0
 22 23  1  0  0  0  0
 23 24  1  0  0  0  0
 24 25  1  0  0  0  0
 25 26  1  0  0  0  0
 26 27  1  0  0  0  0
 27 28  1  0  0  0  0
 28 29  1  0  0  0  0
 29 30  1  0  0  0  0
 30 31  1  0  0  0  0
 31 32  1  0  0  0  0
 32 33  1  0  0  0  0
 33 34  1  0  0  0  0
 34 35  1  0  0  0  0
 35 36  1  0  0  0  0
 36 37  1  0  0  0  0
 37 38  1  0  0  0  0
 38 39  1  0  0  0  0
 39 40  1  0  0  0  0
 40 41  1  0  0  0  0
 41 42  1  0  0  0  0
 42 43  1  0  0  0  0
 43 44  1  0  0  0  0
 44 45  1  0  0  0  0
 45 46  1  0  0  0  0
 46 47  1  0  0  0  0
 47 48  1  0  0  0  0
 48 49  1  0  0  0  0
 49 50  1  0  0  0  0
 50 51  1  0  0  0  0
 51 52  1  0  0  0  0
 52 53  1  0  0  0  0
 53 54  1  0  0  0  0
 54 55  1  0  0  0  0
 55 56  1  0  0  0  0
 56 57  1  0  0  0  0
 57 58  1  0  0  0  0
 58 59  1  0  0  0  0
 59 60  1  0  0  0  0
 60 61  1  0  0  0  0
 61 62  1  0  0  0  0
 62 63  1  0  0  0  0
 63 64  1  0  0  0  0
 64 65  1  0  0  0  0
 65 66  1  0  0  0  0
 66 67  1  0  0  0  0
 67 68  1  0  0  0  0
 68 69  1  0  0  0  0
 69 70  1  0  0  0  0
 70 71  1  0  0  0  0
 71 72  1  0  0  0  0
 72 73  1  0  0  0  0
 73 74  1  0  0  0  0
 74 75  1  0  0  0  0
 75 76  1  0  0  0  0
 76 77  1  0  0  0  0
 77 78  1  0  0  0  0
 78 79  1  0  0  0  0
 79 80  1  0  0  0  0
 80 81  1  0  0  0  0
 81 83  1  0  0  0  0
M  END
$$$$
