
 OpenBabel04232216523D

 69 70  0  0  1  0  0  0  0  0999 V2000
    2.2385    1.0447   -3.5352 C   0  0  0  0  0  0  0  0  0  0  0  0
    3.7148    0.7698   -3.1303 C   0  0  0  0  0  0  0  0  0  0  0  0
    4.6944   -0.6042   -3.3755 C   0  0  0  0  0  0  0  0  0  0  0  0
    5.4541   -1.5764   -4.7758 C   0  0  0  0  0  0  0  0  0  0  0  0
    7.1658   -2.5564   -4.9771 C   0  0  3  0  0  0  0  0  0  0  0  0
    7.4078   -2.0544   -3.4836 C   0  0  0  0  0  0  0  0  0  0  0  0
    8.6346   -1.4382   -3.7766 C   0  0  0  0  0  0  0  0  0  0  0  0
    9.6252   -0.6022   -3.1514 C   0  0  0  0  0  0  0  0  0  0  0  0
   10.5758   -0.7900   -4.2965 C   0  0  0  0  0  0  0  0  0  0  0  0
   11.9402   -1.1732   -3.8576 C   0  0  0  0  0  0  0  0  0  0  0  0
   12.3856   -2.0056   -5.0163 C   0  0  0  0  0  0  0  0  0  0  0  0
   13.6960   -1.5892   -5.5706 C   0  0  0  0  0  0  0  0  0  0  0  0
   13.3713   -1.4304   -7.0313 C   0  0  0  0  0  0  0  0  0  0  0  0
   13.8637   -2.5113   -7.8379 C   0  0  0  0  0  0  0  0  0  0  0  0
   15.0840   -2.7009   -7.9219 O   0  0  0  0  0  0  0  0  0  0  0  0
   12.5756   -3.1911   -8.6778 C   0  0  0  0  0  0  0  0  0  0  0  0
   11.8105   -3.9233   -7.6379 C   0  0  0  0  0  0  0  0  0  0  0  0
   12.8164   -5.1468   -7.1153 N   0  0  0  0  0  0  0  0  0  0  0  0
   14.4877   -5.5554   -7.4821 C   0  0  0  0  0  0  0  0  0  0  0  0
   15.1848   -6.7792   -8.3629 C   0  0  0  0  0  0  0  0  0  0  0  0
   15.5015   -6.4944   -9.8724 C   0  0  0  0  0  0  0  0  0  0  0  0
   14.1705   -6.0588  -10.3974 C   0  0  0  0  0  0  0  0  0  0  0  0
   14.0814   -5.2075  -11.6288 C   0  0  0  0  0  0  0  0  0  0  0  0
   13.0649   -4.0821  -11.3153 C   0  0  0  0  0  0  0  0  0  0  0  0
   13.3805   -3.2268  -10.0907 C   0  0  0  0  0  0  0  0  0  0  0  0
   14.2651   -2.3709  -10.2967 O   0  0  0  0  0  0  0  0  0  0  0  0
   10.0513   -3.3967   -7.0855 C   0  0  0  0  0  0  0  0  0  0  0  0
    8.6429   -2.9520   -6.2913 C   0  0  0  0  0  0  0  0  0  0  0  0
    1.8961    2.0046   -3.0830 H   0  0  0  0  0  0  0  0  0  0  0  0
    1.5166    0.3171   -3.1442 H   0  0  0  0  0  0  0  0  0  0  0  0
    2.1020    1.1817   -4.6075 H   0  0  0  0  0  0  0  0  0  0  0  0
    3.6020    0.8120   -2.0187 H   0  0  0  0  0  0  0  0  0  0  0  0
    4.2823    1.6908   -3.3238 H   0  0  0  0  0  0  0  0  0  0  0  0
    4.1008   -1.3605   -2.8314 H   0  0  0  0  0  0  0  0  0  0  0  0
    5.4711   -0.3204   -2.6489 H   0  0  0  0  0  0  0  0  0  0  0  0
    4.9539   -1.3554   -5.7248 H   0  0  0  0  0  0  0  0  0  0  0  0
    4.9421   -2.4833   -4.4333 H   0  0  0  0  0  0  0  0  0  0  0  0
    6.7429   -3.5878   -4.9548 H   0  0  0  0  0  0  0  0  0  0  0  0
    7.4185   -2.8645   -2.6655 H   0  0  0  0  0  0  0  0  0  0  0  0
    6.8425   -1.2277   -3.0939 H   0  0  0  0  0  0  0  0  0  0  0  0
    8.3978   -0.8717   -4.7476 H   0  0  0  0  0  0  0  0  0  0  0  0
    9.1267   -2.4207   -3.9242 H   0  0  0  0  0  0  0  0  0  0  0  0
    9.9392   -1.0522   -2.2143 H   0  0  0  0  0  0  0  0  0  0  0  0
    9.3647    0.4499   -3.0421 H   0  0  0  0  0  0  0  0  0  0  0  0
   10.4693   -0.0558   -5.1095 H   0  0  0  0  0  0  0  0  0  0  0  0
   10.2766   -1.6865   -4.8685 H   0  0  0  0  0  0  0  0  0  0  0  0
   11.9265   -1.8131   -2.9762 H   0  0  0  0  0  0  0  0  0  0  0  0
   12.4802   -0.2485   -3.7006 H   0  0  0  0  0  0  0  0  0  0  0  0
   11.6546   -1.7958   -5.7838 H   0  0  0  0  0  0  0  0  0  0  0  0
   12.2415   -3.0889   -4.8924 H   0  0  0  0  0  0  0  0  0  0  0  0
   14.4321   -2.3458   -5.2784 H   0  0  0  0  0  0  0  0  0  0  0  0
   14.0171   -0.6265   -5.1691 H   0  0  0  0  0  0  0  0  0  0  0  0
   13.3787   -0.4403   -7.4897 H   0  0  0  0  0  0  0  0  0  0  0  0
   12.3233   -1.6479   -7.2328 H   0  0  0  0  0  0  0  0  0  0  0  0
   12.9655   -4.8137   -6.1500 H   0  0  0  0  0  0  0  0  0  0  0  0
   14.8972   -5.7757   -6.4818 H   0  0  0  0  0  0  0  0  0  0  0  0
   15.0407   -4.6927   -7.8199 H   0  0  0  0  0  0  0  0  0  0  0  0
   14.6624   -7.7356   -8.2732 H   0  0  0  0  0  0  0  0  0  0  0  0
   16.2026   -6.9670   -7.9561 H   0  0  0  0  0  0  0  0  0  0  0  0
   15.8739   -7.3822  -10.4157 H   0  0  0  0  0  0  0  0  0  0  0  0
   16.2939   -5.7375   -9.9947 H   0  0  0  0  0  0  0  0  0  0  0  0
   13.7833   -5.4397   -9.6078 H   0  0  0  0  0  0  0  0  0  0  0  0
   13.4940   -6.9124  -10.4477 H   0  0  0  0  0  0  0  0  0  0  0  0
   13.6957   -5.8171  -12.4559 H   0  0  0  0  0  0  0  0  0  0  0  0
   15.0594   -4.8281  -11.9552 H   0  0  0  0  0  0  0  0  0  0  0  0
   12.0496   -4.4472  -11.2501 H   0  0  0  0  0  0  0  0  0  0  0  0
   13.1217   -3.3887  -12.1719 H   0  0  0  0  0  0  0  0  0  0  0  0
    9.7981   -3.1655   -8.0753 H   0  0  0  0  0  0  0  0  0  0  0  0
    7.9767   -2.6791   -7.1468 H   0  0  0  0  0  0  0  0  0  0  0  0
  1  2  1  0  0  0  0
  1 29  1  0  0  0  0
  1 30  1  0  0  0  0
  1 31  1  0  0  0  0
  2  3  1  0  0  0  0
  2 32  1  0  0  0  0
  2 33  1  0  0  0  0
  3  4  1  0  0  0  0
  3 34  1  0  0  0  0
  3 35  1  0  0  0  0
  4  5  1  0  0  0  0
  4 36  1  0  0  0  0
  4 37  1  0  0  0  0
  5  6  1  0  0  0  0
  5 28  1  0  0  0  0
  5 38  1  0  0  0  0
  6  7  1  0  0  0  0
  6 39  1  0  0  0  0
  6 40  1  0  0  0  0
  7  8  1  0  0  0  0
  7 41  1  0  0  0  0
  7 42  1  0  0  0  0
  8  9  1  0  0  0  0
  8 43  1  0  0  0  0
  8 44  1  0  0  0  0
  9 10  1  0  0  0  0
  9 45  1  0  0  0  0
  9 46  1  0  0  0  0
 10 11  1  0  0  0  0
 10 47  1  0  0  0  0
 10 48  1  0  0  0  0
 11 12  1  0  0  0  0
 11 49  1  0  0  0  0
 11 50  1  0  0  0  0
 12 13  1  0  0  0  0
 12 51  1  0  0  0  0
 12 52  1  0  0  0  0
 13 14  1  0  0  0  0
 13 53  1  0  0  0  0
 13 54  1  0  0  0  0
 14 15  2  0  0  0  0
 14 16  1  0  0  0  0
 16 17  2  3  0  0  0
 16 25  1  0  0  0  0
 17 18  1  0  0  0  0
 17 27  1  0  0  0  0
 18 19  1  0  0  0  0
 18 55  1  0  0  0  0
 19 20  1  0  0  0  0
 19 56  1  0  0  0  0
 19 57  1  0  0  0  0
 20 21  1  0  0  0  0
 20 58  1  0  0  0  0
 20 59  1  0  0  0  0
 21 22  1  0  0  0  0
 21 60  1  0  0  0  0
 21 61  1  0  0  0  0
 22 23  1  0  0  0  0
 22 62  1  0  0  0  0
 22 63  1  0  0  0  0
 23 24  1  0  0  0  0
 23 64  1  0  0  0  0
 23 65  1  0  0  0  0
 24 25  1  0  0  0  0
 24 66  1  0  0  0  0
 24 67  1  0  0  0  0
 25 26  2  0  0  0  0
 27 28  2  3  0  0  0
 27 68  1  0  0  0  0
 28 69  1  0  0  0  0
M  END
$$$$
