
 OpenBabel04232216533D

240239  0  0  0  0  0  0  0  0999 V2000
    1.0883    0.0028    0.0162 C   0  0  0  0  0  0  0  0  0  0  0  0
    2.6042    0.0050    0.0102 C   0  0  0  0  0  0  0  0  0  0  0  0
    3.1260    0.8971   -1.1066 C   0  0  0  0  0  0  0  0  0  0  0  0
    4.6462    0.9019   -1.1187 C   0  0  0  0  0  0  0  0  0  0  0  0
    5.1633    1.7970   -2.2378 C   0  0  0  0  0  0  0  0  0  0  0  0
    6.6864    1.7990   -2.2477 C   0  0  0  0  0  0  0  0  0  0  0  0
    7.1659    2.6699   -3.3249 N   0  0  0  0  0  0  0  0  0  0  0  0
    8.5864    2.6374   -3.3223 N   0  0  0  0  0  0  0  0  0  0  0  0
    9.0565    3.4730   -4.3567 N   0  0  0  0  0  0  0  0  0  0  0  0
   10.4719    3.4913   -4.3684 N   0  0  0  0  0  0  0  0  0  0  0  0
   10.9413    4.3273   -5.4239 N   0  0  0  0  0  0  0  0  0  0  0  0
   12.3978    4.3118   -5.4058 C   0  0  0  0  0  0  0  0  0  0  0  0
   12.9125    5.2089   -6.5235 C   0  0  0  0  0  0  0  0  0  0  0  0
   14.4305    5.2108   -6.5295 C   0  0  0  0  0  0  0  0  0  0  0  0
   14.9493    6.1081   -7.6479 C   0  0  0  0  0  0  0  0  0  0  0  0
   16.4664    6.1101   -7.6537 C   0  0  0  0  0  0  0  0  0  0  0  0
   16.9778    7.0046   -8.7671 C   0  0  0  0  0  0  0  0  0  0  0  0
   18.4945    7.0049   -8.7739 C   0  0  0  0  0  0  0  0  0  0  0  0
   19.0050    7.8978   -9.8883 C   0  0  0  0  0  0  0  0  0  0  0  0
   20.5215    7.8995   -9.8937 C   0  0  0  0  0  0  0  0  0  0  0  0
   21.0318    8.7939  -11.0069 C   0  0  0  0  0  0  0  0  0  0  0  0
   22.5482    8.7940  -11.0134 C   0  0  0  0  0  0  0  0  0  0  0  0
   23.0585    9.6900  -12.1253 C   0  0  0  0  0  0  0  0  0  0  0  0
   24.5749    9.6916  -12.1305 C   0  0  0  0  0  0  0  0  0  0  0  0
   25.0851   10.5876  -13.2424 C   0  0  0  0  0  0  0  0  0  0  0  0
   26.6015   10.5908  -13.2464 C   0  0  0  0  0  0  0  0  0  0  0  0
   27.1118   11.4868  -14.3583 C   0  0  0  0  0  0  0  0  0  0  0  0
   28.6282   11.4900  -14.3622 C   0  0  0  0  0  0  0  0  0  0  0  0
   29.1385   12.3860  -15.4741 C   0  0  0  0  0  0  0  0  0  0  0  0
   30.6549   12.3892  -15.4781 C   0  0  0  0  0  0  0  0  0  0  0  0
   31.1651   13.2852  -16.5900 C   0  0  0  0  0  0  0  0  0  0  0  0
   32.6815   13.2884  -16.5939 C   0  0  0  0  0  0  0  0  0  0  0  0
   33.1918   14.1844  -17.7058 C   0  0  0  0  0  0  0  0  0  0  0  0
   34.7082   14.1891  -17.7085 C   0  0  0  0  0  0  0  0  0  0  0  0
   35.2184   15.0851  -18.8205 C   0  0  0  0  0  0  0  0  0  0  0  0
   36.7348   15.0883  -18.8244 C   0  0  0  0  0  0  0  0  0  0  0  0
   37.2451   15.9828  -19.9375 C   0  0  0  0  0  0  0  0  0  0  0  0
   38.7615   15.9875  -19.9402 C   0  0  0  0  0  0  0  0  0  0  0  0
   39.2718   16.8835  -21.0522 C   0  0  0  0  0  0  0  0  0  0  0  0
   40.7882   16.8867  -21.0561 C   0  0  0  0  0  0  0  0  0  0  0  0
   41.2984   17.7812  -22.1693 C   0  0  0  0  0  0  0  0  0  0  0  0
   42.8148   17.7843  -22.1732 C   0  0  0  0  0  0  0  0  0  0  0  0
   43.3251   18.6788  -23.2864 C   0  0  0  0  0  0  0  0  0  0  0  0
   44.8415   18.6819  -23.2904 C   0  0  0  0  0  0  0  0  0  0  0  0
   45.3518   19.5764  -24.4035 C   0  0  0  0  0  0  0  0  0  0  0  0
   46.8682   19.5796  -24.4075 C   0  0  0  0  0  0  0  0  0  0  0  0
   47.3784   20.4740  -25.5206 C   0  0  0  0  0  0  0  0  0  0  0  0
   48.8948   20.4772  -25.5246 C   0  0  0  0  0  0  0  0  0  0  0  0
   49.4051   21.3716  -26.6378 C   0  0  0  0  0  0  0  0  0  0  0  0
   50.9215   21.3732  -26.6430 C   0  0  0  0  0  0  0  0  0  0  0  0
   51.4317   22.2677  -27.7562 C   0  0  0  0  0  0  0  0  0  0  0  0
   52.9481   22.2677  -27.7626 C   0  0  0  0  0  0  0  0  0  0  0  0
   53.4584   23.1637  -28.8746 C   0  0  0  0  0  0  0  0  0  0  0  0
   54.9748   23.1653  -28.8798 C   0  0  0  0  0  0  0  0  0  0  0  0
   55.4851   24.0598  -29.9929 C   0  0  0  0  0  0  0  0  0  0  0  0
   57.0015   24.0629  -29.9969 C   0  0  0  0  0  0  0  0  0  0  0  0
   57.5117   24.9589  -31.1088 C   0  0  0  0  0  0  0  0  0  0  0  0
   59.0281   24.9606  -31.1140 C   0  0  0  0  0  0  0  0  0  0  0  0
   59.5384   25.8566  -32.2259 C   0  0  0  0  0  0  0  0  0  0  0  0
   61.0548   25.8597  -32.2299 C   0  0  0  0  0  0  0  0  0  0  0  0
   61.5650   26.7558  -33.3418 C   0  0  0  0  0  0  0  0  0  0  0  0
   63.0814   26.7589  -33.3458 C   0  0  0  0  0  0  0  0  0  0  0  0
   63.5917   27.6550  -34.4576 C   0  0  0  0  0  0  0  0  0  0  0  0
   65.1081   27.6581  -34.4616 C   0  0  0  0  0  0  0  0  0  0  0  0
   65.6184   28.5541  -35.5735 C   0  0  0  0  0  0  0  0  0  0  0  0
   67.1348   28.5573  -35.5775 C   0  0  0  0  0  0  0  0  0  0  0  0
   67.6450   29.4533  -36.6894 C   0  0  0  0  0  0  0  0  0  0  0  0
   69.1614   29.4565  -36.6933 C   0  0  0  0  0  0  0  0  0  0  0  0
   69.6717   30.3525  -37.8052 C   0  0  0  0  0  0  0  0  0  0  0  0
   71.1881   30.3541  -37.8104 C   0  0  0  0  0  0  0  0  0  0  0  0
   71.6984   31.2501  -38.9223 C   0  0  0  0  0  0  0  0  0  0  0  0
   73.2148   31.2518  -38.9276 C   0  0  0  0  0  0  0  0  0  0  0  0
   73.7250   32.1478  -40.0395 C   0  0  0  0  0  0  0  0  0  0  0  0
   75.2415   32.1494  -40.0447 C   0  0  0  0  0  0  0  0  0  0  0  0
   75.7519   33.0455  -41.1567 C   0  0  0  0  0  0  0  0  0  0  0  0
   77.2685   33.0456  -41.1633 C   0  0  0  0  0  0  0  0  0  0  0  0
   77.7797   33.9417  -42.2754 C   0  0  0  0  0  0  0  0  0  0  0  0
   79.2974   33.9423  -42.2825 C   0  0  0  0  0  0  0  0  0  0  0  0
   79.8107   34.8400  -43.3933 C   0  0  0  0  0  0  0  0  0  0  0  0
   81.3302   34.8475  -43.4059 C   0  0  0  0  0  0  0  0  0  0  0  0
   81.8399   35.7442  -44.5154 C   0  0  0  0  0  0  0  0  0  0  0  0
    0.7131   -0.6375    0.8178 H   0  0  0  0  0  0  0  0  0  0  0  0
    0.6999   -0.3704   -0.9371 H   0  0  0  0  0  0  0  0  0  0  0  0
    0.7022    1.0157    0.1713 H   0  0  0  0  0  0  0  0  0  0  0  0
    2.9733   -1.0186   -0.1255 H   0  0  0  0  0  0  0  0  0  0  0  0
    2.9758    0.3617    0.9782 H   0  0  0  0  0  0  0  0  0  0  0  0
    2.7536    1.9199   -0.9689 H   0  0  0  0  0  0  0  0  0  0  0  0
    2.7490    0.5404   -2.0732 H   0  0  0  0  0  0  0  0  0  0  0  0
    5.0182   -0.1210   -1.2562 H   0  0  0  0  0  0  0  0  0  0  0  0
    5.0226    1.2588   -0.1521 H   0  0  0  0  0  0  0  0  0  0  0  0
    4.7846    2.8170   -2.0952 H   0  0  0  0  0  0  0  0  0  0  0  0
    4.7809    1.4369   -3.2013 H   0  0  0  0  0  0  0  0  0  0  0  0
    7.0429    0.7728   -2.3991 H   0  0  0  0  0  0  0  0  0  0  0  0
    7.0587    2.1493   -1.2758 H   0  0  0  0  0  0  0  0  0  0  0  0
    6.8484    3.6173   -3.1608 H   0  0  0  0  0  0  0  0  0  0  0  0
    8.9251    1.6917   -3.5048 H   0  0  0  0  0  0  0  0  0  0  0  0
    8.6848    4.4055   -4.1975 H   0  0  0  0  0  0  0  0  0  0  0  0
   10.7864    2.5324   -4.5260 H   0  0  0  0  0  0  0  0  0  0  0  0
   10.5985    5.2726   -5.2541 H   0  0  0  0  0  0  0  0  0  0  0  0
   12.7718    3.2931   -5.5643 H   0  0  0  0  0  0  0  0  0  0  0  0
   12.7816    4.6701   -4.4426 H   0  0  0  0  0  0  0  0  0  0  0  0
   12.5441    6.2331   -6.3885 H   0  0  0  0  0  0  0  0  0  0  0  0
   12.5430    4.8529   -7.4939 H   0  0  0  0  0  0  0  0  0  0  0  0
   14.8118    4.1952   -6.6716 H   0  0  0  0  0  0  0  0  0  0  0  0
   14.8122    5.5735   -5.5670 H   0  0  0  0  0  0  0  0  0  0  0  0
   14.5760    7.1302   -7.5090 H   0  0  0  0  0  0  0  0  0  0  0  0
   14.5737    5.7511   -8.6148 H   0  0  0  0  0  0  0  0  0  0  0  0
   16.8410    5.0887   -7.7948 H   0  0  0  0  0  0  0  0  0  0  0  0
   16.8436    6.4661   -6.6871 H   0  0  0  0  0  0  0  0  0  0  0  0
   16.6054    8.0266   -8.6257 H   0  0  0  0  0  0  0  0  0  0  0  0
   16.6007    6.6498   -9.7341 H   0  0  0  0  0  0  0  0  0  0  0  0
   18.8676    5.9830   -8.9142 H   0  0  0  0  0  0  0  0  0  0  0  0
   18.8721    7.3613   -7.8076 H   0  0  0  0  0  0  0  0  0  0  0  0
   18.6312    8.9196   -9.7490 H   0  0  0  0  0  0  0  0  0  0  0  0
   18.6288    7.5407  -10.8549 H   0  0  0  0  0  0  0  0  0  0  0  0
   20.8954    6.8779  -10.0345 H   0  0  0  0  0  0  0  0  0  0  0  0
   20.8979    8.2554   -8.9268 H   0  0  0  0  0  0  0  0  0  0  0  0
   20.6590    9.8158  -10.8652 H   0  0  0  0  0  0  0  0  0  0  0  0
   20.6544    8.4390  -11.9738 H   0  0  0  0  0  0  0  0  0  0  0  0
   22.9210    7.7723  -11.1564 H   0  0  0  0  0  0  0  0  0  0  0  0
   22.9256    9.1477  -10.0460 H   0  0  0  0  0  0  0  0  0  0  0  0
   22.6846   10.7114  -11.9830 H   0  0  0  0  0  0  0  0  0  0  0  0
   22.6821    9.3355  -13.0927 H   0  0  0  0  0  0  0  0  0  0  0  0
   24.9488    8.6703  -12.2728 H   0  0  0  0  0  0  0  0  0  0  0  0
   24.9511   10.0461  -11.1630 H   0  0  0  0  0  0  0  0  0  0  0  0
   24.7101   11.6087  -13.1009 H   0  0  0  0  0  0  0  0  0  0  0  0
   24.7100   10.2323  -14.2100 H   0  0  0  0  0  0  0  0  0  0  0  0
   26.9766    9.5698  -13.3878 H   0  0  0  0  0  0  0  0  0  0  0  0
   26.9766   10.9461  -12.2788 H   0  0  0  0  0  0  0  0  0  0  0  0
   26.7367   12.5078  -14.2168 H   0  0  0  0  0  0  0  0  0  0  0  0
   26.7367   11.1315  -15.3259 H   0  0  0  0  0  0  0  0  0  0  0  0
   29.0033   10.4690  -14.5037 H   0  0  0  0  0  0  0  0  0  0  0  0
   29.0033   11.8453  -13.3946 H   0  0  0  0  0  0  0  0  0  0  0  0
   28.7633   13.4070  -15.3326 H   0  0  0  0  0  0  0  0  0  0  0  0
   28.7633   12.0307  -16.4417 H   0  0  0  0  0  0  0  0  0  0  0  0
   31.0300   11.3682  -15.6196 H   0  0  0  0  0  0  0  0  0  0  0  0
   31.0300   12.7445  -14.5105 H   0  0  0  0  0  0  0  0  0  0  0  0
   30.7900   14.3062  -16.4485 H   0  0  0  0  0  0  0  0  0  0  0  0
   30.7900   12.9299  -17.5576 H   0  0  0  0  0  0  0  0  0  0  0  0
   33.0567   12.2674  -16.7354 H   0  0  0  0  0  0  0  0  0  0  0  0
   33.0566   13.6437  -15.6263 H   0  0  0  0  0  0  0  0  0  0  0  0
   32.8155   15.2051  -17.5651 H   0  0  0  0  0  0  0  0  0  0  0  0
   32.8178   13.8282  -18.6735 H   0  0  0  0  0  0  0  0  0  0  0  0
   35.0844   13.1684  -17.8492 H   0  0  0  0  0  0  0  0  0  0  0  0
   35.0822   14.5453  -16.7408 H   0  0  0  0  0  0  0  0  0  0  0  0
   34.8433   16.1061  -18.6790 H   0  0  0  0  0  0  0  0  0  0  0  0
   34.8434   14.7298  -19.7881 H   0  0  0  0  0  0  0  0  0  0  0  0
   37.1100   14.0671  -18.9645 H   0  0  0  0  0  0  0  0  0  0  0  0
   37.1099   15.4450  -17.8572 H   0  0  0  0  0  0  0  0  0  0  0  0
   36.8688   17.0037  -19.7983 H   0  0  0  0  0  0  0  0  0  0  0  0
   36.8712   15.6253  -20.9048 H   0  0  0  0  0  0  0  0  0  0  0  0
   39.1377   14.9668  -20.0809 H   0  0  0  0  0  0  0  0  0  0  0  0
   39.1355   16.3437  -18.9725 H   0  0  0  0  0  0  0  0  0  0  0  0
   38.8966   17.9045  -20.9107 H   0  0  0  0  0  0  0  0  0  0  0  0
   38.8967   16.5282  -22.0198 H   0  0  0  0  0  0  0  0  0  0  0  0
   41.1633   15.8655  -21.1962 H   0  0  0  0  0  0  0  0  0  0  0  0
   41.1632   17.2433  -20.0890 H   0  0  0  0  0  0  0  0  0  0  0  0
   40.9233   18.8024  -22.0292 H   0  0  0  0  0  0  0  0  0  0  0  0
   40.9233   17.4245  -23.1364 H   0  0  0  0  0  0  0  0  0  0  0  0
   43.1899   16.7631  -22.3133 H   0  0  0  0  0  0  0  0  0  0  0  0
   43.1899   18.1410  -21.2061 H   0  0  0  0  0  0  0  0  0  0  0  0
   42.9500   19.7000  -23.1464 H   0  0  0  0  0  0  0  0  0  0  0  0
   42.9500   18.3221  -24.2535 H   0  0  0  0  0  0  0  0  0  0  0  0
   45.2166   17.6607  -23.4304 H   0  0  0  0  0  0  0  0  0  0  0  0
   45.2166   19.0386  -22.3233 H   0  0  0  0  0  0  0  0  0  0  0  0
   44.9766   20.5976  -24.2635 H   0  0  0  0  0  0  0  0  0  0  0  0
   44.9766   19.2197  -25.3706 H   0  0  0  0  0  0  0  0  0  0  0  0
   47.2433   18.5583  -24.5475 H   0  0  0  0  0  0  0  0  0  0  0  0
   47.2433   19.9362  -23.4404 H   0  0  0  0  0  0  0  0  0  0  0  0
   47.0033   21.4952  -25.3806 H   0  0  0  0  0  0  0  0  0  0  0  0
   47.0033   20.1173  -26.4877 H   0  0  0  0  0  0  0  0  0  0  0  0
   49.2699   19.4559  -25.6647 H   0  0  0  0  0  0  0  0  0  0  0  0
   49.2700   20.8339  -24.5575 H   0  0  0  0  0  0  0  0  0  0  0  0
   49.0311   22.3932  -26.4969 H   0  0  0  0  0  0  0  0  0  0  0  0
   49.0288   21.0158  -27.6048 H   0  0  0  0  0  0  0  0  0  0  0  0
   51.2954   20.3517  -26.7839 H   0  0  0  0  0  0  0  0  0  0  0  0
   51.2978   21.7290  -25.6761 H   0  0  0  0  0  0  0  0  0  0  0  0
   51.0589   23.2895  -27.6145 H   0  0  0  0  0  0  0  0  0  0  0  0
   51.0543   21.9127  -28.7230 H   0  0  0  0  0  0  0  0  0  0  0  0
   53.3209   21.2461  -27.9057 H   0  0  0  0  0  0  0  0  0  0  0  0
   53.3256   22.6214  -26.7953 H   0  0  0  0  0  0  0  0  0  0  0  0
   53.0845   24.1851  -28.7323 H   0  0  0  0  0  0  0  0  0  0  0  0
   53.0820   22.8092  -29.8420 H   0  0  0  0  0  0  0  0  0  0  0  0
   55.3488   22.1438  -29.0207 H   0  0  0  0  0  0  0  0  0  0  0  0
   55.3510   23.5211  -27.9128 H   0  0  0  0  0  0  0  0  0  0  0  0
   55.1100   25.0810  -29.8528 H   0  0  0  0  0  0  0  0  0  0  0  0
   55.1099   23.7032  -30.9600 H   0  0  0  0  0  0  0  0  0  0  0  0
   57.3765   23.0419  -30.1384 H   0  0  0  0  0  0  0  0  0  0  0  0
   57.3767   24.4183  -29.0294 H   0  0  0  0  0  0  0  0  0  0  0  0
   57.1377   25.9803  -30.9665 H   0  0  0  0  0  0  0  0  0  0  0  0
   57.1355   24.6045  -32.0763 H   0  0  0  0  0  0  0  0  0  0  0  0
   59.4021   23.9393  -31.2563 H   0  0  0  0  0  0  0  0  0  0  0  0
   59.4044   25.3150  -30.1465 H   0  0  0  0  0  0  0  0  0  0  0  0
   59.1633   26.8776  -32.0844 H   0  0  0  0  0  0  0  0  0  0  0  0
   59.1632   25.5013  -33.1935 H   0  0  0  0  0  0  0  0  0  0  0  0
   61.4299   24.8387  -32.3714 H   0  0  0  0  0  0  0  0  0  0  0  0
   61.4299   26.2151  -31.2623 H   0  0  0  0  0  0  0  0  0  0  0  0
   61.1899   27.7768  -33.2003 H   0  0  0  0  0  0  0  0  0  0  0  0
   61.1899   26.4005  -34.3094 H   0  0  0  0  0  0  0  0  0  0  0  0
   63.4566   25.7379  -33.4872 H   0  0  0  0  0  0  0  0  0  0  0  0
   63.4566   27.1142  -32.3781 H   0  0  0  0  0  0  0  0  0  0  0  0
   63.2166   28.6760  -34.3162 H   0  0  0  0  0  0  0  0  0  0  0  0
   63.2166   27.2996  -35.4253 H   0  0  0  0  0  0  0  0  0  0  0  0
   65.4832   26.6371  -34.6031 H   0  0  0  0  0  0  0  0  0  0  0  0
   65.4832   28.0134  -33.4940 H   0  0  0  0  0  0  0  0  0  0  0  0
   65.2433   29.5752  -35.4320 H   0  0  0  0  0  0  0  0  0  0  0  0
   65.2433   28.1988  -36.5411 H   0  0  0  0  0  0  0  0  0  0  0  0
   67.5099   27.5363  -35.7190 H   0  0  0  0  0  0  0  0  0  0  0  0
   67.5099   28.9126  -34.6099 H   0  0  0  0  0  0  0  0  0  0  0  0
   67.2699   30.4744  -36.5479 H   0  0  0  0  0  0  0  0  0  0  0  0
   67.2699   29.0980  -37.6570 H   0  0  0  0  0  0  0  0  0  0  0  0
   69.5365   28.4355  -36.8348 H   0  0  0  0  0  0  0  0  0  0  0  0
   69.5366   29.8118  -35.7257 H   0  0  0  0  0  0  0  0  0  0  0  0
   69.2977   31.3738  -37.6629 H   0  0  0  0  0  0  0  0  0  0  0  0
   69.2955   29.9981  -38.7727 H   0  0  0  0  0  0  0  0  0  0  0  0
   71.5620   29.3328  -37.9528 H   0  0  0  0  0  0  0  0  0  0  0  0
   71.5644   30.7086  -36.8430 H   0  0  0  0  0  0  0  0  0  0  0  0
   71.3244   32.2715  -38.7801 H   0  0  0  0  0  0  0  0  0  0  0  0
   71.3221   30.8957  -39.8898 H   0  0  0  0  0  0  0  0  0  0  0  0
   73.5887   30.2304  -39.0699 H   0  0  0  0  0  0  0  0  0  0  0  0
   73.5911   31.6062  -37.9601 H   0  0  0  0  0  0  0  0  0  0  0  0
   73.3511   33.1691  -39.8972 H   0  0  0  0  0  0  0  0  0  0  0  0
   73.3487   31.7933  -41.0069 H   0  0  0  0  0  0  0  0  0  0  0  0
   75.6153   31.1280  -40.1870 H   0  0  0  0  0  0  0  0  0  0  0  0
   75.6178   32.5038  -39.0773 H   0  0  0  0  0  0  0  0  0  0  0  0
   75.3789   34.0670  -41.0135 H   0  0  0  0  0  0  0  0  0  0  0  0
   75.3743   32.6918  -42.1240 H   0  0  0  0  0  0  0  0  0  0  0  0
   77.6409   32.0238  -41.3062 H   0  0  0  0  0  0  0  0  0  0  0  0
   77.6456   33.3990  -40.1958 H   0  0  0  0  0  0  0  0  0  0  0  0
   77.4061   34.9631  -42.1320 H   0  0  0  0  0  0  0  0  0  0  0  0
   77.4015   33.5880  -43.2424 H   0  0  0  0  0  0  0  0  0  0  0  0
   79.6687   32.9201  -42.4263 H   0  0  0  0  0  0  0  0  0  0  0  0
   79.6733   34.2940  -41.3138 H   0  0  0  0  0  0  0  0  0  0  0  0
   79.4332   35.8603  -43.2489 H   0  0  0  0  0  0  0  0  0  0  0  0
   79.4307   34.4864  -44.3603 H   0  0  0  0  0  0  0  0  0  0  0  0
   81.7074   33.8281  -43.5517 H   0  0  0  0  0  0  0  0  0  0  0  0
   81.7098   35.2023  -42.4400 H   0  0  0  0  0  0  0  0  0  0  0  0
   81.4849   35.3912  -45.4892 H   0  0  0  0  0  0  0  0  0  0  0  0
   82.9321   35.7505  -44.5254 H   0  0  0  0  0  0  0  0  0  0  0  0
   81.4873   36.7710  -44.3730 H   0  0  0  0  0  0  0  0  0  0  0  0
  1  2  1  0  0  0  0
  1 82  1  0  0  0  0
  1 83  1  0  0  0  0
  1 84  1  0  0  0  0
  2  3  1  0  0  0  0
  2 85  1  0  0  0  0
  2 86  1  0  0  0  0
  3  4  1  0  0  0  0
  3 87  1  0  0  0  0
  3 88  1  0  0  0  0
  4  5  1  0  0  0  0
  4 89  1  0  0  0  0
  4 90  1  0  0  0  0
  5  6  1  0  0  0  0
  5 91  1  0  0  0  0
  5 92  1  0  0  0  0
  6  7  1  0  0  0  0
  6 93  1  0  0  0  0
  6 94  1  0  0  0  0
  7  8  1  0  0  0  0
  7 95  1  0  0  0  0
  8  9  1  0  0  0  0
  8 96  1  0  0  0  0
  9 10  1  0  0  0  0
  9 97  1  0  0  0  0
 10 11  1  0  0  0  0
 10 98  1  0  0  0  0
 11 12  1  0  0  0  0
 11 99  1  0  0  0  0
 12 13  1  0  0  0  0
 12100  1  0  0  0  0
 12101  1  0  0  0  0
 13 14  1  0  0  0  0
 13102  1  0  0  0  0
 13103  1  0  0  0  0
 14 15  1  0  0  0  0
 14104  1  0  0  0  0
 14105  1  0  0  0  0
 15 16  1  0  0  0  0
 15106  1  0  0  0  0
 15107  1  0  0  0  0
 16 17  1  0  0  0  0
 16108  1  0  0  0  0
 16109  1  0  0  0  0
 17 18  1  0  0  0  0
 17110  1  0  0  0  0
 17111  1  0  0  0  0
 18 19  1  0  0  0  0
 18112  1  0  0  0  0
 18113  1  0  0  0  0
 19 20  1  0  0  0  0
 19114  1  0  0  0  0
 19115  1  0  0  0  0
 20 21  1  0  0  0  0
 20116  1  0  0  0  0
 20117  1  0  0  0  0
 21 22  1  0  0  0  0
 21118  1  0  0  0  0
 21119  1  0  0  0  0
 22 23  1  0  0  0  0
 22120  1  0  0  0  0
 22121  1  0  0  0  0
 23 24  1  0  0  0  0
 23122  1  0  0  0  0
 23123  1  0  0  0  0
 24 25  1  0  0  0  0
 24124  1  0  0  0  0
 24125  1  0  0  0  0
 25 26  1  0  0  0  0
 25126  1  0  0  0  0
 25127  1  0  0  0  0
 26 27  1  0  0  0  0
 26128  1  0  0  0  0
 26129  1  0  0  0  0
 27 28  1  0  0  0  0
 27130  1  0  0  0  0
 27131  1  0  0  0  0
 28 29  1  0  0  0  0
 28132  1  0  0  0  0
 28133  1  0  0  0  0
 29 30  1  0  0  0  0
 29134  1  0  0  0  0
 29135  1  0  0  0  0
 30 31  1  0  0  0  0
 30136  1  0  0  0  0
 30137  1  0  0  0  0
 31 32  1  0  0  0  0
 31138  1  0  0  0  0
 31139  1  0  0  0  0
 32 33  1  0  0  0  0
 32140  1  0  0  0  0
 32141  1  0  0  0  0
 33 34  1  0  0  0  0
 33142  1  0  0  0  0
 33143  1  0  0  0  0
 34 35  1  0  0  0  0
 34144  1  0  0  0  0
 34145  1  0  0  0  0
 35 36  1  0  0  0  0
 35146  1  0  0  0  0
 35147  1  0  0  0  0
 36 37  1  0  0  0  0
 36148  1  0  0  0  0
 36149  1  0  0  0  0
 37 38  1  0  0  0  0
 37150  1  0  0  0  0
 37151  1  0  0  0  0
 38 39  1  0  0  0  0
 38152  1  0  0  0  0
 38153  1  0  0  0  0
 39 40  1  0  0  0  0
 39154  1  0  0  0  0
 39155  1  0  0  0  0
 40 41  1  0  0  0  0
 40156  1  0  0  0  0
 40157  1  0  0  0  0
 41 42  1  0  0  0  0
 41158  1  0  0  0  0
 41159  1  0  0  0  0
 42 43  1  0  0  0  0
 42160  1  0  0  0  0
 42161  1  0  0  0  0
 43 44  1  0  0  0  0
 43162  1  0  0  0  0
 43163  1  0  0  0  0
 44 45  1  0  0  0  0
 44164  1  0  0  0  0
 44165  1  0  0  0  0
 45 46  1  0  0  0  0
 45166  1  0  0  0  0
 45167  1  0  0  0  0
 46 47  1  0  0  0  0
 46168  1  0  0  0  0
 46169  1  0  0  0  0
 47 48  1  0  0  0  0
 47170  1  0  0  0  0
 47171  1  0  0  0  0
 48 49  1  0  0  0  0
 48172  1  0  0  0  0
 48173  1  0  0  0  0
 49 50  1  0  0  0  0
 49174  1  0  0  0  0
 49175  1  0  0  0  0
 50 51  1  0  0  0  0
 50176  1  0  0  0  0
 50177  1  0  0  0  0
 51 52  1  0  0  0  0
 51178  1  0  0  0  0
 51179  1  0  0  0  0
 52 53  1  0  0  0  0
 52180  1  0  0  0  0
 52181  1  0  0  0  0
 53 54  1  0  0  0  0
 53182  1  0  0  0  0
 53183  1  0  0  0  0
 54 55  1  0  0  0  0
 54184  1  0  0  0  0
 54185  1  0  0  0  0
 55 56  1  0  0  0  0
 55186  1  0  0  0  0
 55187  1  0  0  0  0
 56 57  1  0  0  0  0
 56188  1  0  0  0  0
 56189  1  0  0  0  0
 57 58  1  0  0  0  0
 57190  1  0  0  0  0
 57191  1  0  0  0  0
 58 59  1  0  0  0  0
 58192  1  0  0  0  0
 58193  1  0  0  0  0
 59 60  1  0  0  0  0
 59194  1  0  0  0  0
 59195  1  0  0  0  0
 60 61  1  0  0  0  0
 60196  1  0  0  0  0
 60197  1  0  0  0  0
 61 62  1  0  0  0  0
 61198  1  0  0  0  0
 61199  1  0  0  0  0
 62 63  1  0  0  0  0
 62200  1  0  0  0  0
 62201  1  0  0  0  0
 63 64  1  0  0  0  0
 63202  1  0  0  0  0
 63203  1  0  0  0  0
 64 65  1  0  0  0  0
 64204  1  0  0  0  0
 64205  1  0  0  0  0
 65 66  1  0  0  0  0
 65206  1  0  0  0  0
 65207  1  0  0  0  0
 66 67  1  0  0  0  0
 66208  1  0  0  0  0
 66209  1  0  0  0  0
 67 68  1  0  0  0  0
 67210  1  0  0  0  0
 67211  1  0  0  0  0
 68 69  1  0  0  0  0
 68212  1  0  0  0  0
 68213  1  0  0  0  0
 69 70  1  0  0  0  0
 69214  1  0  0  0  0
 69215  1  0  0  0  0
 70 71  1  0  0  0  0
 70216  1  0  0  0  0
 70217  1  0  0  0  0
 71 72  1  0  0  0  0
 71218  1  0  0  0  0
 71219  1  0  0  0  0
 72 73  1  0  0  0  0
 72220  1  0  0  0  0
 72221  1  0  0  0  0
 73 74  1  0  0  0  0
 73222  1  0  0  0  0
 73223  1  0  0  0  0
 74 75  1  0  0  0  0
 74224  1  0  0  0  0
 74225  1  0  0  0  0
 75 76  1  0  0  0  0
 75226  1  0  0  0  0
 75227  1  0  0  0  0
 76 77  1  0  0  0  0
 76228  1  0  0  0  0
 76229  1  0  0  0  0
 77 78  1  0  0  0  0
 77230  1  0  0  0  0
 77231  1  0  0  0  0
 78 79  1  0  0  0  0
 78232  1  0  0  0  0
 78233  1  0  0  0  0
 79 80  1  0  0  0  0
 79234  1  0  0  0  0
 79235  1  0  0  0  0
 80 81  1  0  0  0  0
 80236  1  0  0  0  0
 80237  1  0  0  0  0
 81238  1  0  0  0  0
 81239  1  0  0  0  0
 81240  1  0  0  0  0
M  END
$$$$
