
 OpenBabel04232216543D

226225  0  0  0  0  0  0  0  0999 V2000
    0.9596    0.0150   -9.6408 C   0  0  0  0  0  0  0  0  0  0  0  0
    2.4739    0.0156   -9.6471 C   0  0  0  0  0  0  0  0  0  0  0  0
    3.0033    0.7327   -8.4140 C   0  0  0  0  0  0  0  0  0  0  0  0
    4.5258    0.7399   -8.4129 C   0  0  0  0  0  0  0  0  0  0  0  0
    5.0596    1.4601   -7.1752 C   0  0  0  0  0  0  0  0  0  0  0  0
    6.5127    1.4433   -7.2153 N   0  0  0  0  0  0  0  0  0  0  0  0
    7.0025    2.1210   -6.0474 N   0  0  0  0  0  0  0  0  0  0  0  0
    8.4028    2.1213   -6.0475 N   0  0  0  0  0  0  0  0  0  0  0  0
    8.8831    2.7879   -4.9001 N   0  0  0  0  0  0  0  0  0  0  0  0
   10.2972    2.7907   -4.9057 N   0  0  0  0  0  0  0  0  0  0  0  0
   10.7771    3.4576   -6.0576 N   0  0  0  0  0  0  0  0  0  0  0  0
   12.1765    3.4540   -6.0536 N   0  0  0  0  0  0  0  0  0  0  0  0
   12.6662    4.1191   -7.2091 N   0  0  0  0  0  0  0  0  0  0  0  0
   14.0803    4.1274   -7.2156 N   0  0  0  0  0  0  0  0  0  0  0  0
   14.5441    4.7907   -8.3674 N   0  0  0  0  0  0  0  0  0  0  0  0
   15.9702    4.7944   -8.3730 N   0  0  0  0  0  0  0  0  0  0  0  0
   16.4562    5.4643   -9.5342 N   0  0  0  0  0  0  0  0  0  0  0  0
   17.8898    5.4780   -9.5555 N   0  0  0  0  0  0  0  0  0  0  0  0
   18.3750    6.1446  -10.7085 N   0  0  0  0  0  0  0  0  0  0  0  0
   19.7859    6.1403  -10.7059 N   0  0  0  0  0  0  0  0  0  0  0  0
   20.2537    6.8039  -11.8555 N   0  0  0  0  0  0  0  0  0  0  0  0
   21.6684    6.8071  -11.8692 N   0  0  0  0  0  0  0  0  0  0  0  0
   22.1447    7.4739  -13.0211 N   0  0  0  0  0  0  0  0  0  0  0  0
   23.5700    7.4693  -13.0167 N   0  0  0  0  0  0  0  0  0  0  0  0
   24.0426    8.1616  -14.2133 C   0  0  0  0  0  0  0  0  0  0  0  0
   25.5616    8.1640  -14.2176 C   0  0  0  0  0  0  0  0  0  0  0  0
   26.0760    8.8803  -15.4552 C   0  0  0  0  0  0  0  0  0  0  0  0
   27.5928    8.8846  -15.4626 C   0  0  0  0  0  0  0  0  0  0  0  0
   28.1046    9.5996  -16.6981 C   0  0  0  0  0  0  0  0  0  0  0  0
   29.6207    9.6028  -16.7036 C   0  0  0  0  0  0  0  0  0  0  0  0
   30.1319   10.3176  -17.9389 C   0  0  0  0  0  0  0  0  0  0  0  0
   31.6477   10.3206  -17.9441 C   0  0  0  0  0  0  0  0  0  0  0  0
   32.1586   11.0354  -19.1793 C   0  0  0  0  0  0  0  0  0  0  0  0
   33.6744   11.0367  -19.1855 C   0  0  0  0  0  0  0  0  0  0  0  0
   34.1853   11.7515  -20.4207 C   0  0  0  0  0  0  0  0  0  0  0  0
   35.7011   11.7545  -20.4259 C   0  0  0  0  0  0  0  0  0  0  0  0
   36.2120   12.4675  -21.6620 C   0  0  0  0  0  0  0  0  0  0  0  0
   37.7277   12.4688  -21.6682 C   0  0  0  0  0  0  0  0  0  0  0  0
   38.2386   13.1836  -22.9034 C   0  0  0  0  0  0  0  0  0  0  0  0
   39.7544   13.1866  -22.9086 C   0  0  0  0  0  0  0  0  0  0  0  0
   40.2653   13.8996  -24.1448 C   0  0  0  0  0  0  0  0  0  0  0  0
   41.7810   13.9026  -24.1500 C   0  0  0  0  0  0  0  0  0  0  0  0
   42.2919   14.6157  -25.3861 C   0  0  0  0  0  0  0  0  0  0  0  0
   43.8077   14.6187  -25.3913 C   0  0  0  0  0  0  0  0  0  0  0  0
   44.3186   15.3317  -26.6275 C   0  0  0  0  0  0  0  0  0  0  0  0
   45.8344   15.3347  -26.6327 C   0  0  0  0  0  0  0  0  0  0  0  0
   46.3453   16.0478  -27.8689 C   0  0  0  0  0  0  0  0  0  0  0  0
   47.8610   16.0508  -27.8740 C   0  0  0  0  0  0  0  0  0  0  0  0
   48.3719   16.7638  -29.1102 C   0  0  0  0  0  0  0  0  0  0  0  0
   49.8877   16.7685  -29.1144 C   0  0  0  0  0  0  0  0  0  0  0  0
   50.3986   17.4816  -30.3506 C   0  0  0  0  0  0  0  0  0  0  0  0
   51.9144   17.4846  -30.3557 C   0  0  0  0  0  0  0  0  0  0  0  0
   52.4252   18.1994  -31.5909 C   0  0  0  0  0  0  0  0  0  0  0  0
   53.9410   18.2041  -31.5951 C   0  0  0  0  0  0  0  0  0  0  0  0
   54.4519   18.9172  -32.8313 C   0  0  0  0  0  0  0  0  0  0  0  0
   55.9677   18.9237  -32.8344 C   0  0  0  0  0  0  0  0  0  0  0  0
   56.4786   19.6385  -34.0696 C   0  0  0  0  0  0  0  0  0  0  0  0
   57.9943   19.6432  -34.0738 C   0  0  0  0  0  0  0  0  0  0  0  0
   58.5052   20.3580  -35.3090 C   0  0  0  0  0  0  0  0  0  0  0  0
   60.0210   20.3610  -35.3141 C   0  0  0  0  0  0  0  0  0  0  0  0
   60.5319   21.0758  -36.5493 C   0  0  0  0  0  0  0  0  0  0  0  0
   62.0476   21.0788  -36.5545 C   0  0  0  0  0  0  0  0  0  0  0  0
   62.5585   21.7936  -37.7897 C   0  0  0  0  0  0  0  0  0  0  0  0
   64.0743   21.7966  -37.7949 C   0  0  0  0  0  0  0  0  0  0  0  0
   64.5852   22.5114  -39.0300 C   0  0  0  0  0  0  0  0  0  0  0  0
   66.1010   22.5144  -39.0352 C   0  0  0  0  0  0  0  0  0  0  0  0
   66.6118   23.2292  -40.2704 C   0  0  0  0  0  0  0  0  0  0  0  0
   68.1276   23.2321  -40.2756 C   0  0  0  0  0  0  0  0  0  0  0  0
   68.6385   23.9469  -41.5107 C   0  0  0  0  0  0  0  0  0  0  0  0
   70.1543   23.9482  -41.5169 C   0  0  0  0  0  0  0  0  0  0  0  0
   70.6652   24.6630  -42.7521 C   0  0  0  0  0  0  0  0  0  0  0  0
   72.1809   24.6642  -42.7583 C   0  0  0  0  0  0  0  0  0  0  0  0
   72.6918   25.3790  -43.9935 C   0  0  0  0  0  0  0  0  0  0  0  0
   74.2076   25.3803  -43.9997 C   0  0  0  0  0  0  0  0  0  0  0  0
   74.7185   26.0951  -45.2348 C   0  0  0  0  0  0  0  0  0  0  0  0
   76.2342   26.0981  -45.2400 C   0  0  0  0  0  0  0  0  0  0  0  0
   76.7454   26.8129  -46.4752 C   0  0  0  0  0  0  0  0  0  0  0  0
   78.2617   26.8159  -46.4804 C   0  0  0  0  0  0  0  0  0  0  0  0
   78.7738   27.5291  -47.7169 C   0  0  0  0  0  0  0  0  0  0  0  0
   80.2923   27.5326  -47.7270 C   0  0  0  0  0  0  0  0  0  0  0  0
   80.8000   28.2447  -48.9615 C   0  0  0  0  0  0  0  0  0  0  0  0
    0.5780   -0.4998  -10.5259 H   0  0  0  0  0  0  0  0  0  0  0  0
    0.5773    1.0406   -9.6418 H   0  0  0  0  0  0  0  0  0  0  0  0
    0.5816   -0.4961   -8.7497 H   0  0  0  0  0  0  0  0  0  0  0  0
    2.8365    0.5151  -10.5526 H   0  0  0  0  0  0  0  0  0  0  0  0
    2.8408   -1.0170   -9.6633 H   0  0  0  0  0  0  0  0  0  0  0  0
    2.6340    0.2309   -7.5114 H   0  0  0  0  0  0  0  0  0  0  0  0
    2.6271    1.7630   -8.3996 H   0  0  0  0  0  0  0  0  0  0  0  0
    4.8828    1.2368   -9.3244 H   0  0  0  0  0  0  0  0  0  0  0  0
    4.8911   -0.2947   -8.4328 H   0  0  0  0  0  0  0  0  0  0  0  0
    4.6807    0.9497   -6.2824 H   0  0  0  0  0  0  0  0  0  0  0  0
    4.6757    2.4881   -7.1746 H   0  0  0  0  0  0  0  0  0  0  0  0
    6.7901    1.9184   -8.0795 H   0  0  0  0  0  0  0  0  0  0  0  0
    6.6716    1.6409   -5.2034 H   0  0  0  0  0  0  0  0  0  0  0  0
    8.7638    2.6176   -6.8638 H   0  0  0  0  0  0  0  0  0  0  0  0
    8.5503    2.2980   -4.0747 H   0  0  0  0  0  0  0  0  0  0  0  0
   10.6301    1.8279   -4.9303 H   0  0  0  0  0  0  0  0  0  0  0  0
   10.4466    4.4198   -6.0522 H   0  0  0  0  0  0  0  0  0  0  0  0
   12.5225    2.4963   -6.0668 H   0  0  0  0  0  0  0  0  0  0  0  0
   12.3347    5.0823   -7.2147 H   0  0  0  0  0  0  0  0  0  0  0  0
   14.4250    3.1682   -7.2290 H   0  0  0  0  0  0  0  0  0  0  0  0
   14.2183    5.7542   -8.3729 H   0  0  0  0  0  0  0  0  0  0  0  0
   16.2787    3.8200   -8.3321 H   0  0  0  0  0  0  0  0  0  0  0  0
   16.0746    6.4194   -9.5215 H   0  0  0  0  0  0  0  0  0  0  0  0
   18.2539    4.5203   -9.5860 H   0  0  0  0  0  0  0  0  0  0  0  0
   18.0767    7.1189  -10.7228 H   0  0  0  0  0  0  0  0  0  0  0  0
   20.1294    5.1805  -10.7102 H   0  0  0  0  0  0  0  0  0  0  0  0
   19.9136    7.7648  -11.8647 H   0  0  0  0  0  0  0  0  0  0  0  0
   22.0073    5.8458  -11.8643 H   0  0  0  0  0  0  0  0  0  0  0  0
   21.7871    8.4280  -12.9906 H   0  0  0  0  0  0  0  0  0  0  0  0
   23.8825    6.4988  -13.0363 H   0  0  0  0  0  0  0  0  0  0  0  0
   23.6819    9.1976  -14.2133 H   0  0  0  0  0  0  0  0  0  0  0  0
   23.6735    7.6666  -15.1201 H   0  0  0  0  0  0  0  0  0  0  0  0
   25.9396    7.1344  -14.2078 H   0  0  0  0  0  0  0  0  0  0  0  0
   25.9400    8.6690  -13.3199 H   0  0  0  0  0  0  0  0  0  0  0  0
   25.7045    9.9122  -15.4705 H   0  0  0  0  0  0  0  0  0  0  0  0
   25.7044    8.3787  -16.3570 H   0  0  0  0  0  0  0  0  0  0  0  0
   27.9671    7.8539  -15.4500 H   0  0  0  0  0  0  0  0  0  0  0  0
   27.9673    9.3871  -14.5626 H   0  0  0  0  0  0  0  0  0  0  0  0
   27.7318   10.6309  -16.7117 H   0  0  0  0  0  0  0  0  0  0  0  0
   27.7318    9.0975  -17.5990 H   0  0  0  0  0  0  0  0  0  0  0  0
   29.9943    8.5717  -16.6905 H   0  0  0  0  0  0  0  0  0  0  0  0
   29.9943   10.1051  -15.8032 H   0  0  0  0  0  0  0  0  0  0  0  0
   29.7587   11.3488  -17.9522 H   0  0  0  0  0  0  0  0  0  0  0  0
   29.7587    9.8154  -18.8396 H   0  0  0  0  0  0  0  0  0  0  0  0
   32.0210    9.2895  -17.9309 H   0  0  0  0  0  0  0  0  0  0  0  0
   32.0211   10.8229  -17.0435 H   0  0  0  0  0  0  0  0  0  0  0  0
   31.7865   12.0670  -19.1918 H   0  0  0  0  0  0  0  0  0  0  0  0
   31.7842   10.5341  -20.0799 H   0  0  0  0  0  0  0  0  0  0  0  0
   34.0465   10.0051  -19.1730 H   0  0  0  0  0  0  0  0  0  0  0  0
   34.0489   11.5381  -18.2849 H   0  0  0  0  0  0  0  0  0  0  0  0
   33.8120   12.7826  -20.4339 H   0  0  0  0  0  0  0  0  0  0  0  0
   33.8120   11.2492  -21.3213 H   0  0  0  0  0  0  0  0  0  0  0  0
   36.0744   10.7234  -20.4112 H   0  0  0  0  0  0  0  0  0  0  0  0
   36.0744   12.2580  -19.5260 H   0  0  0  0  0  0  0  0  0  0  0  0
   35.8398   13.4991  -21.6760 H   0  0  0  0  0  0  0  0  0  0  0  0
   35.8375   11.9649  -22.5620 H   0  0  0  0  0  0  0  0  0  0  0  0
   38.0998   11.4372  -21.6557 H   0  0  0  0  0  0  0  0  0  0  0  0
   38.1022   12.9702  -20.7676 H   0  0  0  0  0  0  0  0  0  0  0  0
   37.8653   14.2147  -22.9166 H   0  0  0  0  0  0  0  0  0  0  0  0
   37.8653   12.6813  -23.8040 H   0  0  0  0  0  0  0  0  0  0  0  0
   40.1277   12.1555  -22.8939 H   0  0  0  0  0  0  0  0  0  0  0  0
   40.1277   13.6901  -22.0087 H   0  0  0  0  0  0  0  0  0  0  0  0
   39.8920   14.9307  -24.1595 H   0  0  0  0  0  0  0  0  0  0  0  0
   39.8920   13.3961  -25.0447 H   0  0  0  0  0  0  0  0  0  0  0  0
   42.1544   12.8715  -24.1353 H   0  0  0  0  0  0  0  0  0  0  0  0
   42.1544   14.4062  -23.2500 H   0  0  0  0  0  0  0  0  0  0  0  0
   41.9186   15.6468  -25.4008 H   0  0  0  0  0  0  0  0  0  0  0  0
   41.9186   14.1121  -26.2860 H   0  0  0  0  0  0  0  0  0  0  0  0
   44.1810   13.5876  -25.3766 H   0  0  0  0  0  0  0  0  0  0  0  0
   44.1810   15.1222  -24.4914 H   0  0  0  0  0  0  0  0  0  0  0  0
   43.9453   16.3628  -26.6422 H   0  0  0  0  0  0  0  0  0  0  0  0
   43.9453   14.8282  -27.5274 H   0  0  0  0  0  0  0  0  0  0  0  0
   46.2077   14.3036  -26.6180 H   0  0  0  0  0  0  0  0  0  0  0  0
   46.2077   15.8383  -25.7328 H   0  0  0  0  0  0  0  0  0  0  0  0
   45.9720   17.0789  -27.8835 H   0  0  0  0  0  0  0  0  0  0  0  0
   45.9720   15.5442  -28.7688 H   0  0  0  0  0  0  0  0  0  0  0  0
   48.2343   15.0197  -27.8593 H   0  0  0  0  0  0  0  0  0  0  0  0
   48.2343   16.5543  -26.9741 H   0  0  0  0  0  0  0  0  0  0  0  0
   47.9974   17.7945  -29.1256 H   0  0  0  0  0  0  0  0  0  0  0  0
   47.9998   16.2594  -30.0101 H   0  0  0  0  0  0  0  0  0  0  0  0
   50.2622   15.7379  -29.0990 H   0  0  0  0  0  0  0  0  0  0  0  0
   50.2598   17.2729  -28.2145 H   0  0  0  0  0  0  0  0  0  0  0  0
   50.0253   18.5127  -30.3653 H   0  0  0  0  0  0  0  0  0  0  0  0
   50.0253   16.9781  -31.2505 H   0  0  0  0  0  0  0  0  0  0  0  0
   52.2877   16.4535  -30.3425 H   0  0  0  0  0  0  0  0  0  0  0  0
   52.2877   17.9869  -29.4551 H   0  0  0  0  0  0  0  0  0  0  0  0
   52.0508   19.2301  -31.6049 H   0  0  0  0  0  0  0  0  0  0  0  0
   52.0531   17.6963  -32.4915 H   0  0  0  0  0  0  0  0  0  0  0  0
   54.3155   17.1735  -31.5797 H   0  0  0  0  0  0  0  0  0  0  0  0
   54.3131   18.7085  -30.6952 H   0  0  0  0  0  0  0  0  0  0  0  0
   54.0762   19.9474  -32.8474 H   0  0  0  0  0  0  0  0  0  0  0  0
   54.0810   18.4119  -33.7312 H   0  0  0  0  0  0  0  0  0  0  0  0
   56.3433   17.8934  -32.8197 H   0  0  0  0  0  0  0  0  0  0  0  0
   56.3386   19.4276  -31.9338 H   0  0  0  0  0  0  0  0  0  0  0  0
   56.1041   20.6691  -34.0836 H   0  0  0  0  0  0  0  0  0  0  0  0
   56.1064   19.1353  -34.9702 H   0  0  0  0  0  0  0  0  0  0  0  0
   58.3688   18.6125  -34.0598 H   0  0  0  0  0  0  0  0  0  0  0  0
   58.3665   20.1463  -33.1732 H   0  0  0  0  0  0  0  0  0  0  0  0
   58.1319   21.3891  -35.3222 H   0  0  0  0  0  0  0  0  0  0  0  0
   58.1319   19.8557  -36.2096 H   0  0  0  0  0  0  0  0  0  0  0  0
   60.3943   19.3299  -35.3009 H   0  0  0  0  0  0  0  0  0  0  0  0
   60.3943   20.8632  -34.4135 H   0  0  0  0  0  0  0  0  0  0  0  0
   60.1586   22.1069  -36.5625 H   0  0  0  0  0  0  0  0  0  0  0  0
   60.1586   20.5735  -37.4499 H   0  0  0  0  0  0  0  0  0  0  0  0
   62.4209   20.0476  -36.5413 H   0  0  0  0  0  0  0  0  0  0  0  0
   62.4210   21.5810  -35.6539 H   0  0  0  0  0  0  0  0  0  0  0  0
   62.1852   22.8247  -37.8029 H   0  0  0  0  0  0  0  0  0  0  0  0
   62.1852   21.2913  -38.6903 H   0  0  0  0  0  0  0  0  0  0  0  0
   64.4476   20.7654  -37.7816 H   0  0  0  0  0  0  0  0  0  0  0  0
   64.4476   22.2988  -36.8942 H   0  0  0  0  0  0  0  0  0  0  0  0
   64.2119   23.5425  -39.0433 H   0  0  0  0  0  0  0  0  0  0  0  0
   64.2119   22.0091  -39.9306 H   0  0  0  0  0  0  0  0  0  0  0  0
   66.4743   21.4832  -39.0220 H   0  0  0  0  0  0  0  0  0  0  0  0
   66.4743   23.0166  -38.1346 H   0  0  0  0  0  0  0  0  0  0  0  0
   66.2386   24.2603  -40.2836 H   0  0  0  0  0  0  0  0  0  0  0  0
   66.2385   22.7269  -41.1710 H   0  0  0  0  0  0  0  0  0  0  0  0
   68.5009   22.2010  -40.2623 H   0  0  0  0  0  0  0  0  0  0  0  0
   68.5009   23.7344  -39.3749 H   0  0  0  0  0  0  0  0  0  0  0  0
   68.2664   24.9785  -41.5232 H   0  0  0  0  0  0  0  0  0  0  0  0
   68.2640   23.4455  -42.4113 H   0  0  0  0  0  0  0  0  0  0  0  0
   70.5264   22.9166  -41.5044 H   0  0  0  0  0  0  0  0  0  0  0  0
   70.5288   24.4496  -40.6163 H   0  0  0  0  0  0  0  0  0  0  0  0
   70.2930   25.6946  -42.7646 H   0  0  0  0  0  0  0  0  0  0  0  0
   70.2907   24.1616  -43.6527 H   0  0  0  0  0  0  0  0  0  0  0  0
   72.5531   23.6327  -42.7458 H   0  0  0  0  0  0  0  0  0  0  0  0
   72.5554   25.1656  -41.8577 H   0  0  0  0  0  0  0  0  0  0  0  0
   72.3197   26.4106  -44.0060 H   0  0  0  0  0  0  0  0  0  0  0  0
   72.3173   24.8776  -44.8941 H   0  0  0  0  0  0  0  0  0  0  0  0
   74.5797   24.3487  -43.9872 H   0  0  0  0  0  0  0  0  0  0  0  0
   74.5821   25.8817  -43.0990 H   0  0  0  0  0  0  0  0  0  0  0  0
   74.3452   27.1262  -45.2481 H   0  0  0  0  0  0  0  0  0  0  0  0
   74.3452   25.5928  -46.1355 H   0  0  0  0  0  0  0  0  0  0  0  0
   76.6075   25.0669  -45.2268 H   0  0  0  0  0  0  0  0  0  0  0  0
   76.6075   26.6003  -44.3394 H   0  0  0  0  0  0  0  0  0  0  0  0
   76.3719   27.8440  -46.4884 H   0  0  0  0  0  0  0  0  0  0  0  0
   76.3719   26.3106  -47.3758 H   0  0  0  0  0  0  0  0  0  0  0  0
   78.6345   25.7846  -46.4655 H   0  0  0  0  0  0  0  0  0  0  0  0
   78.6345   27.3193  -45.5802 H   0  0  0  0  0  0  0  0  0  0  0  0
   78.3997   28.5603  -47.7305 H   0  0  0  0  0  0  0  0  0  0  0  0
   78.3974   27.0263  -48.6163 H   0  0  0  0  0  0  0  0  0  0  0  0
   80.6661   26.5025  -47.7153 H   0  0  0  0  0  0  0  0  0  0  0  0
   80.6684   28.0365  -46.8295 H   0  0  0  0  0  0  0  0  0  0  0  0
   80.4434   27.7415  -49.8658 H   0  0  0  0  0  0  0  0  0  0  0  0
   81.8923   28.2491  -48.9719 H   0  0  0  0  0  0  0  0  0  0  0  0
   80.4458   29.2803  -48.9772 H   0  0  0  0  0  0  0  0  0  0  0  0
  1  2  1  0  0  0  0
  1 82  1  0  0  0  0
  1 83  1  0  0  0  0
  1 84  1  0  0  0  0
  2  3  1  0  0  0  0
  2 85  1  0  0  0  0
  2 86  1  0  0  0  0
  3  4  1  0  0  0  0
  3 87  1  0  0  0  0
  3 88  1  0  0  0  0
  4  5  1  0  0  0  0
  4 89  1  0  0  0  0
  4 90  1  0  0  0  0
  5  6  1  0  0  0  0
  5 91  1  0  0  0  0
  5 92  1  0  0  0  0
  6  7  1  0  0  0  0
  6 93  1  0  0  0  0
  7  8  1  0  0  0  0
  7 94  1  0  0  0  0
  8  9  1  0  0  0  0
  8 95  1  0  0  0  0
  9 10  1  0  0  0  0
  9 96  1  0  0  0  0
 10 11  1  0  0  0  0
 10 97  1  0  0  0  0
 11 12  1  0  0  0  0
 11 98  1  0  0  0  0
 12 13  1  0  0  0  0
 12 99  1  0  0  0  0
 13 14  1  0  0  0  0
 13100  1  0  0  0  0
 14 15  1  0  0  0  0
 14101  1  0  0  0  0
 15 16  1  0  0  0  0
 15102  1  0  0  0  0
 16 17  1  0  0  0  0
 16103  1  0  0  0  0
 17 18  1  0  0  0  0
 17104  1  0  0  0  0
 18 19  1  0  0  0  0
 18105  1  0  0  0  0
 19 20  1  0  0  0  0
 19106  1  0  0  0  0
 20 21  1  0  0  0  0
 20107  1  0  0  0  0
 21 22  1  0  0  0  0
 21108  1  0  0  0  0
 22 23  1  0  0  0  0
 22109  1  0  0  0  0
 23 24  1  0  0  0  0
 23110  1  0  0  0  0
 24 25  1  0  0  0  0
 24111  1  0  0  0  0
 25 26  1  0  0  0  0
 25112  1  0  0  0  0
 25113  1  0  0  0  0
 26 27  1  0  0  0  0
 26114  1  0  0  0  0
 26115  1  0  0  0  0
 27 28  1  0  0  0  0
 27116  1  0  0  0  0
 27117  1  0  0  0  0
 28 29  1  0  0  0  0
 28118  1  0  0  0  0
 28119  1  0  0  0  0
 29 30  1  0  0  0  0
 29120  1  0  0  0  0
 29121  1  0  0  0  0
 30 31  1  0  0  0  0
 30122  1  0  0  0  0
 30123  1  0  0  0  0
 31 32  1  0  0  0  0
 31124  1  0  0  0  0
 31125  1  0  0  0  0
 32 33  1  0  0  0  0
 32126  1  0  0  0  0
 32127  1  0  0  0  0
 33 34  1  0  0  0  0
 33128  1  0  0  0  0
 33129  1  0  0  0  0
 34 35  1  0  0  0  0
 34130  1  0  0  0  0
 34131  1  0  0  0  0
 35 36  1  0  0  0  0
 35132  1  0  0  0  0
 35133  1  0  0  0  0
 36 37  1  0  0  0  0
 36134  1  0  0  0  0
 36135  1  0  0  0  0
 37 38  1  0  0  0  0
 37136  1  0  0  0  0
 37137  1  0  0  0  0
 38 39  1  0  0  0  0
 38138  1  0  0  0  0
 38139  1  0  0  0  0
 39 40  1  0  0  0  0
 39140  1  0  0  0  0
 39141  1  0  0  0  0
 40 41  1  0  0  0  0
 40142  1  0  0  0  0
 40143  1  0  0  0  0
 41 42  1  0  0  0  0
 41144  1  0  0  0  0
 41145  1  0  0  0  0
 42 43  1  0  0  0  0
 42146  1  0  0  0  0
 42147  1  0  0  0  0
 43 44  1  0  0  0  0
 43148  1  0  0  0  0
 43149  1  0  0  0  0
 44 45  1  0  0  0  0
 44150  1  0  0  0  0
 44151  1  0  0  0  0
 45 46  1  0  0  0  0
 45152  1  0  0  0  0
 45153  1  0  0  0  0
 46 47  1  0  0  0  0
 46154  1  0  0  0  0
 46155  1  0  0  0  0
 47 48  1  0  0  0  0
 47156  1  0  0  0  0
 47157  1  0  0  0  0
 48 49  1  0  0  0  0
 48158  1  0  0  0  0
 48159  1  0  0  0  0
 49 50  1  0  0  0  0
 49160  1  0  0  0  0
 49161  1  0  0  0  0
 50 51  1  0  0  0  0
 50162  1  0  0  0  0
 50163  1  0  0  0  0
 51 52  1  0  0  0  0
 51164  1  0  0  0  0
 51165  1  0  0  0  0
 52 53  1  0  0  0  0
 52166  1  0  0  0  0
 52167  1  0  0  0  0
 53 54  1  0  0  0  0
 53168  1  0  0  0  0
 53169  1  0  0  0  0
 54 55  1  0  0  0  0
 54170  1  0  0  0  0
 54171  1  0  0  0  0
 55 56  1  0  0  0  0
 55172  1  0  0  0  0
 55173  1  0  0  0  0
 56 57  1  0  0  0  0
 56174  1  0  0  0  0
 56175  1  0  0  0  0
 57 58  1  0  0  0  0
 57176  1  0  0  0  0
 57177  1  0  0  0  0
 58 59  1  0  0  0  0
 58178  1  0  0  0  0
 58179  1  0  0  0  0
 59 60  1  0  0  0  0
 59180  1  0  0  0  0
 59181  1  0  0  0  0
 60 61  1  0  0  0  0
 60182  1  0  0  0  0
 60183  1  0  0  0  0
 61 62  1  0  0  0  0
 61184  1  0  0  0  0
 61185  1  0  0  0  0
 62 63  1  0  0  0  0
 62186  1  0  0  0  0
 62187  1  0  0  0  0
 63 64  1  0  0  0  0
 63188  1  0  0  0  0
 63189  1  0  0  0  0
 64 65  1  0  0  0  0
 64190  1  0  0  0  0
 64191  1  0  0  0  0
 65 66  1  0  0  0  0
 65192  1  0  0  0  0
 65193  1  0  0  0  0
 66 67  1  0  0  0  0
 66194  1  0  0  0  0
 66195  1  0  0  0  0
 67 68  1  0  0  0  0
 67196  1  0  0  0  0
 67197  1  0  0  0  0
 68 69  1  0  0  0  0
 68198  1  0  0  0  0
 68199  1  0  0  0  0
 69 70  1  0  0  0  0
 69200  1  0  0  0  0
 69201  1  0  0  0  0
 70 71  1  0  0  0  0
 70202  1  0  0  0  0
 70203  1  0  0  0  0
 71 72  1  0  0  0  0
 71204  1  0  0  0  0
 71205  1  0  0  0  0
 72 73  1  0  0  0  0
 72206  1  0  0  0  0
 72207  1  0  0  0  0
 73 74  1  0  0  0  0
 73208  1  0  0  0  0
 73209  1  0  0  0  0
 74 75  1  0  0  0  0
 74210  1  0  0  0  0
 74211  1  0  0  0  0
 75 76  1  0  0  0  0
 75212  1  0  0  0  0
 75213  1  0  0  0  0
 76 77  1  0  0  0  0
 76214  1  0  0  0  0
 76215  1  0  0  0  0
 77 78  1  0  0  0  0
 77216  1  0  0  0  0
 77217  1  0  0  0  0
 78 79  1  0  0  0  0
 78218  1  0  0  0  0
 78219  1  0  0  0  0
 79 80  1  0  0  0  0
 79220  1  0  0  0  0
 79221  1  0  0  0  0
 80 81  1  0  0  0  0
 80222  1  0  0  0  0
 80223  1  0  0  0  0
 81224  1  0  0  0  0
 81225  1  0  0  0  0
 81226  1  0  0  0  0
M  END
$$$$
