
 OpenBabel04232216513D

 50 51  0  0  1  0  0  0  0  0999 V2000
    0.8617    2.1395   -0.2339 C   0  0  0  0  0  0  0  0  0  0  0  0
    2.3799    2.0963   -0.2042 C   0  0  0  0  0  0  0  0  0  0  0  0
    2.9043    1.1238    0.8517 C   0  0  0  0  0  0  0  0  0  0  0  0
    4.4358    1.1055    0.8466 C   0  0  3  0  0  0  0  0  0  0  0  0
    5.0997    0.1483    1.8866 C   0  0  3  0  0  0  0  0  0  0  0  0
    6.1382   -0.8254    1.3158 C   0  0  0  0  0  0  0  0  0  0  0  0
    6.6978   -1.7028    2.4335 C   0  0  0  0  0  0  0  0  0  0  0  0
    7.7289   -2.6820    1.9082 C   0  0  0  0  0  0  0  0  0  0  0  0
    5.6524    1.4105    2.5447 C   0  0  0  0  0  0  0  0  0  0  0  0
    6.5550    1.6194    3.7573 C   0  0  0  0  0  0  0  0  0  0  0  0
    5.7495    1.8267    5.0583 C   0  0  0  0  0  0  0  0  0  0  0  0
    5.4512    0.8826    5.7742 O   0  0  0  0  0  0  0  0  0  0  0  0
    5.3485    3.2335    5.3192 C   0  0  0  0  0  0  0  0  0  0  0  0
    4.9800    3.8052    6.4930 C   0  0  0  0  0  0  0  0  0  0  0  0
    4.8474    3.4838    7.7518 N   0  0  0  0  0  0  0  0  0  0  0  0
    3.6622    2.9052    8.3474 C   0  0  3  0  0  0  0  0  0  0  0  0
    2.5351    2.7111    7.3392 C   0  0  0  0  0  0  0  0  0  0  0  0
    4.0267    1.6458    8.8765 O   0  0  0  0  0  0  0  0  0  0  0  0
    4.6357    5.1252    5.7645 C   0  0  0  0  0  0  0  0  0  0  0  0
    5.0706    4.4210    4.4668 C   0  0  0  0  0  0  0  0  0  0  0  0
    5.1051    2.2259    1.6245 C   0  0  0  0  0  0  0  0  0  0  0  0
    0.5207    2.8754   -0.9689 H   0  0  0  0  0  0  0  0  0  0  0  0
    0.4561    2.4208    0.7430 H   0  0  0  0  0  0  0  0  0  0  0  0
    0.4488    1.1651   -0.5131 H   0  0  0  0  0  0  0  0  0  0  0  0
    2.7658    3.1020   -0.0024 H   0  0  0  0  0  0  0  0  0  0  0  0
    2.7463    1.8080   -1.1964 H   0  0  0  0  0  0  0  0  0  0  0  0
    2.5102    0.1174    0.6568 H   0  0  0  0  0  0  0  0  0  0  0  0
    2.5326    1.4224    1.8420 H   0  0  0  0  0  0  0  0  0  0  0  0
    4.8184    0.9809   -0.1768 H   0  0  0  0  0  0  0  0  0  0  0  0
    4.3719   -0.3816    2.5172 H   0  0  0  0  0  0  0  0  0  0  0  0
    6.9604   -0.2809    0.8365 H   0  0  0  0  0  0  0  0  0  0  0  0
    5.6862   -1.4576    0.5400 H   0  0  0  0  0  0  0  0  0  0  0  0
    5.8858   -2.2509    2.9256 H   0  0  0  0  0  0  0  0  0  0  0  0
    7.1662   -1.0873    3.1998 H   0  0  0  0  0  0  0  0  0  0  0  0
    7.2876   -3.3384    1.1543 H   0  0  0  0  0  0  0  0  0  0  0  0
    8.1099   -3.3013    2.7254 H   0  0  0  0  0  0  0  0  0  0  0  0
    8.5745   -2.1530    1.4571 H   0  0  0  0  0  0  0  0  0  0  0  0
    7.2025    2.4892    3.5995 H   0  0  0  0  0  0  0  0  0  0  0  0
    7.1890    0.7507    3.9060 H   0  0  0  0  0  0  0  0  0  0  0  0
    5.4743    3.8548    8.4603 H   0  0  0  0  0  0  0  0  0  0  0  0
    3.3159    3.5221    9.1879 H   0  0  0  0  0  0  0  0  0  0  0  0
    2.8671    2.0753    6.5102 H   0  0  0  0  0  0  0  0  0  0  0  0
    2.1968    3.6640    6.9231 H   0  0  0  0  0  0  0  0  0  0  0  0
    1.6847    2.2068    7.8006 H   0  0  0  0  0  0  0  0  0  0  0  0
    4.2453    1.1057    8.0890 H   0  0  0  0  0  0  0  0  0  0  0  0
    5.2366    5.9885    6.0359 H   0  0  0  0  0  0  0  0  0  0  0  0
    3.5777    5.4100    5.7585 H   0  0  0  0  0  0  0  0  0  0  0  0
    5.9264    4.8801    3.9639 H   0  0  0  0  0  0  0  0  0  0  0  0
    4.2677    4.2775    3.7364 H   0  0  0  0  0  0  0  0  0  0  0  0
    5.1092    3.3027    1.4673 H   0  0  0  0  0  0  0  0  0  0  0  0
  1  2  1  0  0  0  0
  1 22  1  0  0  0  0
  1 23  1  0  0  0  0
  1 24  1  0  0  0  0
  2  3  1  0  0  0  0
  2 25  1  0  0  0  0
  2 26  1  0  0  0  0
  3  4  1  0  0  0  0
  3 27  1  0  0  0  0
  3 28  1  0  0  0  0
  4  5  1  0  0  0  0
  4 21  1  0  0  0  0
  4 29  1  0  0  0  0
  5  6  1  0  0  0  0
  5  9  1  0  0  0  0
  5 30  1  0  0  0  0
  6  7  1  0  0  0  0
  6 31  1  0  0  0  0
  6 32  1  0  0  0  0
  7  8  1  0  0  0  0
  7 33  1  0  0  0  0
  7 34  1  0  0  0  0
  8 35  1  0  0  0  0
  8 36  1  0  0  0  0
  8 37  1  0  0  0  0
  9 10  1  0  0  0  0
  9 21  2  0  0  0  0
 10 11  1  0  0  0  0
 10 38  1  0  0  0  0
 10 39  1  0  0  0  0
 11 12  2  0  0  0  0
 11 13  1  0  0  0  0
 13 14  2  0  0  0  0
 13 20  1  0  0  0  0
 14 15  1  0  0  0  0
 14 19  1  0  0  0  0
 15 16  1  0  0  0  0
 15 40  1  0  0  0  0
 16 17  1  0  0  0  0
 16 18  1  0  0  0  0
 16 41  1  0  0  0  0
 17 42  1  0  0  0  0
 17 43  1  0  0  0  0
 17 44  1  0  0  0  0
 18 45  1  0  0  0  0
 19 20  1  0  0  0  0
 19 46  1  0  0  0  0
 19 47  1  0  0  0  0
 20 48  1  0  0  0  0
 20 49  1  0  0  0  0
 21 50  1  0  0  0  0
M  END
$$$$
