
 OpenBabel04232216583D

 17 18  0  0  0  0  0  0  0  0999 V2000
    1.3138   -0.9435   -0.0228 N   0  0  0  0  0  0  0  0  0  0  0  0
    2.5581   -0.2329   -0.0387 N   0  0  0  0  0  0  0  0  0  0  0  0
    3.2861   -0.4922    1.2136 C   0  0  0  0  0  0  0  0  0  0  0  0
    4.5021    0.1375    1.3459 C   0  0  0  0  0  0  0  0  0  0  0  0
    5.3212    1.2207    1.5213 C   0  0  0  0  0  0  0  0  0  0  0  0
    6.6552    0.9232    1.4170 C   0  0  0  0  0  0  0  0  0  0  0  0
    7.0086   -0.4028    1.1752 C   0  0  0  0  0  0  0  0  0  0  0  0
    6.0016   -1.4057    1.0414 C   0  0  0  0  0  0  0  0  0  0  0  0
    4.6445   -1.2196    1.0940 C   0  0  0  0  0  0  0  0  0  0  0  0
    0.8703   -0.9077   -0.9443 H   0  0  0  0  0  0  0  0  0  0  0  0
    0.6430   -0.5392    0.6333 H   0  0  0  0  0  0  0  0  0  0  0  0
    2.4489    0.7757   -0.1815 H   0  0  0  0  0  0  0  0  0  0  0  0
    2.6902   -0.7248    2.0907 H   0  0  0  0  0  0  0  0  0  0  0  0
    4.9440    2.2206    1.6791 H   0  0  0  0  0  0  0  0  0  0  0  0
    7.4151    1.6925    1.5089 H   0  0  0  0  0  0  0  0  0  0  0  0
    8.0553   -0.6859    1.0989 H   0  0  0  0  0  0  0  0  0  0  0  0
    6.3518   -2.4275    0.8755 H   0  0  0  0  0  0  0  0  0  0  0  0
  1  2  1  0  0  0  0
  1 10  1  0  0  0  0
  1 11  1  0  0  0  0
  2  3  1  0  0  0  0
  2 12  1  0  0  0  0
  3  4  1  0  0  0  0
  3  9  1  0  0  0  0
  3 13  1  0  0  0  0
  4  5  1  0  0  0  0
  4  9  2  0  0  0  0
  5  6  2  0  0  0  0
  5 14  1  0  0  0  0
  6  7  1  0  0  0  0
  6 15  1  0  0  0  0
  7  8  2  0  0  0  0
  7 16  1  0  0  0  0
  8  9  1  0  0  0  0
  8 17  1  0  0  0  0
M  END
$$$$
