
 OpenBabel04232216573D

162161  0  0  0  0  0  0  0  0999 V2000
   64.5480   22.0897  -11.2323 C   0  0  0  0  0  0  0  0  0  0  0  0
   63.8663   23.1421  -11.9725 N   0  0  0  0  0  0  0  0  0  0  0  0
   62.4198   22.9410  -11.8890 C   0  0  0  0  0  0  0  0  0  0  0  0
   61.6959   24.0363  -12.6624 C   0  0  0  0  0  0  0  0  0  0  0  0
   60.2560   23.8133  -12.5568 N   0  0  0  0  0  0  0  0  0  0  0  0
   59.6013   24.8422  -13.2991 N   0  0  0  0  0  0  0  0  0  0  0  0
   58.2005   24.6417  -13.2247 N   0  0  0  0  0  0  0  0  0  0  0  0
   57.5028   25.6808  -13.9399 N   0  0  0  0  0  0  0  0  0  0  0  0
   56.0951   25.4937  -13.8560 N   0  0  0  0  0  0  0  0  0  0  0  0
   55.6498   25.5444  -12.5161 N   0  0  0  0  0  0  0  0  0  0  0  0
   54.2757   25.3451  -12.4482 N   0  0  0  0  0  0  0  0  0  0  0  0
   53.8980   25.3834  -11.1044 N   0  0  0  0  0  0  0  0  0  0  0  0
   52.4909   25.1935  -11.0096 N   0  0  0  0  0  0  0  0  0  0  0  0
   52.0481   25.2311   -9.6528 N   0  0  0  0  0  0  0  0  0  0  0  0
   50.6550   25.0446   -9.5921 N   0  0  0  0  0  0  0  0  0  0  0  0
   50.2272   25.0835   -8.2405 N   0  0  0  0  0  0  0  0  0  0  0  0
   48.8312   24.8908   -8.1691 N   0  0  0  0  0  0  0  0  0  0  0  0
   48.4059   24.9341   -6.8175 N   0  0  0  0  0  0  0  0  0  0  0  0
   47.0032   24.7486   -6.7309 N   0  0  0  0  0  0  0  0  0  0  0  0
   46.5852   24.7852   -5.3814 N   0  0  0  0  0  0  0  0  0  0  0  0
   45.1859   24.5979   -5.3054 N   0  0  0  0  0  0  0  0  0  0  0  0
   44.7733   24.6447   -3.9537 N   0  0  0  0  0  0  0  0  0  0  0  0
   43.3632   24.4464   -3.8704 N   0  0  0  0  0  0  0  0  0  0  0  0
   42.9165   24.4825   -2.5123 N   0  0  0  0  0  0  0  0  0  0  0  0
   41.5281   24.2991   -2.4482 N   0  0  0  0  0  0  0  0  0  0  0  0
   41.1280   24.3403   -1.1077 N   0  0  0  0  0  0  0  0  0  0  0  0
   39.7278   24.1537   -1.0428 N   0  0  0  0  0  0  0  0  0  0  0  0
   39.2868   24.1854    0.3042 N   0  0  0  0  0  0  0  0  0  0  0  0
   37.8832   23.9874    0.3897 N   0  0  0  0  0  0  0  0  0  0  0  0
   37.4848   24.0330    1.7445 N   0  0  0  0  0  0  0  0  0  0  0  0
   36.0737   23.8519    1.8516 N   0  0  0  0  0  0  0  0  0  0  0  0
   35.6394   23.8905    3.2317 N   0  0  0  0  0  0  0  0  0  0  0  0
   35.9288   25.1552    3.8379 N   0  0  0  0  0  0  0  0  0  0  0  0
   35.4638   25.2020    5.4185 S   0  0  0  0  0  0  0  0  0  0  0  0
   36.2595   24.0221    6.2723 N   0  0  0  0  0  0  0  0  0  0  0  0
   37.9087   24.1740    6.3518 S   0  0  0  0  0  0  0  0  0  0  0  0
   38.3634   25.6144    7.0382 N   0  0  0  0  0  0  0  0  0  0  0  0
   37.9366   25.8135    8.6352 S   0  0  0  0  0  0  0  0  0  0  0  0
   38.6125   24.6483    9.6074 N   0  0  0  0  0  0  0  0  0  0  0  0
   40.2723   24.6399    9.6925 S   0  0  0  0  0  0  0  0  0  0  0  0
   40.8760   26.0797   10.2777 N   0  0  0  0  0  0  0  0  0  0  0  0
   42.5507   26.0875   10.3072 S   0  0  0  0  0  0  0  0  0  0  0  0
   43.1469   25.8914    8.7720 N   0  0  0  0  0  0  0  0  0  0  0  0
   42.7396   26.9429    7.8765 N   0  0  0  0  0  0  0  0  0  0  0  0
   43.1958   28.2618    8.2900 N   0  0  0  0  0  0  0  0  0  0  0  0
   44.6393   28.3384    8.3519 N   0  0  0  0  0  0  0  0  0  0  0  0
   45.1873   28.0859    7.0522 N   0  0  0  0  0  0  0  0  0  0  0  0
   44.7054   29.0767    6.1293 N   0  0  0  0  0  0  0  0  0  0  0  0
   45.0657   30.3690    6.5952 N   0  0  0  0  0  0  0  0  0  0  0  0
   46.4896   30.4520    6.6898 N   0  0  0  0  0  0  0  0  0  0  0  0
   47.0796   30.2018    5.4036 N   0  0  0  0  0  0  0  0  0  0  0  0
   46.6122   31.1647    4.4592 N   0  0  0  0  0  0  0  0  0  0  0  0
   46.9484   32.4788    4.9040 N   0  0  0  0  0  0  0  0  0  0  0  0
   48.3665   32.5580    5.0277 N   0  0  0  0  0  0  0  0  0  0  0  0
   48.9575   32.2679    3.7639 N   0  0  0  0  0  0  0  0  0  0  0  0
   48.5250   33.2241    2.7725 N   0  0  0  0  0  0  0  0  0  0  0  0
   48.8553   34.5840    3.1608 N   0  0  0  0  0  0  0  0  0  0  0  0
   50.2704   34.7173    3.3031 N   0  0  0  0  0  0  0  0  0  0  0  0
   50.8935   34.4052    2.0665 N   0  0  0  0  0  0  0  0  0  0  0  0
   50.4267   35.3194    1.0797 N   0  0  0  0  0  0  0  0  0  0  0  0
   50.7078   36.6565    1.4877 N   0  0  0  0  0  0  0  0  0  0  0  0
   52.1161   36.8150    1.6345 N   0  0  0  0  0  0  0  0  0  0  0  0
   52.7623   36.5016    0.3885 N   0  0  0  0  0  0  0  0  0  0  0  0
   52.2822   37.3851   -0.6372 N   0  0  0  0  0  0  0  0  0  0  0  0
   52.5606   38.7299   -0.2570 N   0  0  0  0  0  0  0  0  0  0  0  0
   53.9750   38.9218   -0.0912 N   0  0  0  0  0  0  0  0  0  0  0  0
   54.6606   38.6183   -1.3247 N   0  0  0  0  0  0  0  0  0  0  0  0
   54.1914   39.4833   -2.3666 N   0  0  0  0  0  0  0  0  0  0  0  0
   54.4236   40.8458   -1.9913 N   0  0  0  0  0  0  0  0  0  0  0  0
   55.8390   41.0351   -1.7959 N   0  0  0  0  0  0  0  0  0  0  0  0
   56.5119   40.6854   -3.0151 N   0  0  0  0  0  0  0  0  0  0  0  0
   56.0709   41.5525   -4.0982 N   0  0  0  0  0  0  0  0  0  0  0  0
   56.2881   42.9403   -3.7642 N   0  0  0  0  0  0  0  0  0  0  0  0
   57.6824   43.1365   -3.5349 N   0  0  0  0  0  0  0  0  0  0  0  0
   58.4053   42.8001   -4.7397 N   0  0  0  0  0  0  0  0  0  0  0  0
   57.9297   43.6109   -5.8217 N   0  0  0  0  0  0  0  0  0  0  0  0
   58.1569   45.0052   -5.5107 N   0  0  0  0  0  0  0  0  0  0  0  0
   59.5586   45.2361   -5.2576 N   0  0  0  0  0  0  0  0  0  0  0  0
   60.3178   44.9045   -6.4418 N   0  0  0  0  0  0  0  0  0  0  0  0
   59.8667   45.6967   -7.5748 N   0  0  0  0  0  0  0  0  0  0  0  0
   60.0233   47.0940   -7.2743 N   0  0  0  0  0  0  0  0  0  0  0  0
   65.6305   22.2339  -11.2872 H   0  0  0  0  0  0  0  0  0  0  0  0
   64.3117   21.1044  -11.6459 H   0  0  0  0  0  0  0  0  0  0  0  0
   64.2591   22.1106  -10.1764 H   0  0  0  0  0  0  0  0  0  0  0  0
   64.1575   23.1120  -12.9495 H   0  0  0  0  0  0  0  0  0  0  0  0
   62.1031   22.9664  -10.8392 H   0  0  0  0  0  0  0  0  0  0  0  0
   62.1544   21.9617  -12.3059 H   0  0  0  0  0  0  0  0  0  0  0  0
   62.0122   24.0066  -13.7127 H   0  0  0  0  0  0  0  0  0  0  0  0
   61.9602   25.0152  -12.2446 H   0  0  0  0  0  0  0  0  0  0  0  0
   59.9776   23.8459  -11.5729 H   0  0  0  0  0  0  0  0  0  0  0  0
   59.9230   24.8148  -14.2759 H   0  0  0  0  0  0  0  0  0  0  0  0
   57.9298   24.6732  -12.2336 H   0  0  0  0  0  0  0  0  0  0  0  0
   57.7581   25.6637  -14.9327 H   0  0  0  0  0  0  0  0  0  0  0  0
   55.8465   24.5820  -14.2377 H   0  0  0  0  0  0  0  0  0  0  0  0
   55.8641   26.4437  -12.0914 H   0  0  0  0  0  0  0  0  0  0  0  0
   54.0061   24.4357  -12.8147 H   0  0  0  0  0  0  0  0  0  0  0  0
   54.1334   26.2910  -10.6980 H   0  0  0  0  0  0  0  0  0  0  0  0
   52.2035   24.2913  -11.3896 H   0  0  0  0  0  0  0  0  0  0  0  0
   52.2245   26.1323   -9.2179 H   0  0  0  0  0  0  0  0  0  0  0  0
   50.3849   24.1379   -9.9595 H   0  0  0  0  0  0  0  0  0  0  0  0
   50.4346   25.9835   -7.8218 H   0  0  0  0  0  0  0  0  0  0  0  0
   48.6086   23.9865   -8.5752 H   0  0  0  0  0  0  0  0  0  0  0  0
   48.6351   25.8404   -6.4061 H   0  0  0  0  0  0  0  0  0  0  0  0
   46.7389   23.8416   -7.0963 H   0  0  0  0  0  0  0  0  0  0  0  0
   46.8059   25.6877   -4.9741 H   0  0  0  0  0  0  0  0  0  0  0  0
   44.9462   23.6946   -5.6936 H   0  0  0  0  0  0  0  0  0  0  0  0
   45.0615   25.5500   -3.5804 H   0  0  0  0  0  0  0  0  0  0  0  0
   43.1495   23.5469   -4.3100 H   0  0  0  0  0  0  0  0  0  0  0  0
   43.1590   25.3885   -2.1132 H   0  0  0  0  0  0  0  0  0  0  0  0
   41.2918   23.3905   -2.8293 H   0  0  0  0  0  0  0  0  0  0  0  0
   41.4130   25.2470   -0.7377 H   0  0  0  0  0  0  0  0  0  0  0  0
   39.4980   23.2406   -1.4422 H   0  0  0  0  0  0  0  0  0  0  0  0
   39.4965   25.0849    0.7432 H   0  0  0  0  0  0  0  0  0  0  0  0
   37.6277   23.0776    0.0281 H   0  0  0  0  0  0  0  0  0  0  0  0
   37.7516   24.9441    2.1160 H   0  0  0  0  0  0  0  0  0  0  0  0
   35.8421   22.9540    1.4019 H   0  0  0  0  0  0  0  0  0  0  0  0
   36.1207   23.1563    3.7446 H   0  0  0  0  0  0  0  0  0  0  0  0
   35.5001   25.8761    3.2522 H   0  0  0  0  0  0  0  0  0  0  0  0
   35.9906   23.0921    5.9362 H   0  0  0  0  0  0  0  0  0  0  0  0
   38.0223   26.3977    6.4717 H   0  0  0  0  0  0  0  0  0  0  0  0
   38.2402   23.7257    9.3395 H   0  0  0  0  0  0  0  0  0  0  0  0
   40.5442   26.2855   11.2159 H   0  0  0  0  0  0  0  0  0  0  0  0
   42.9184   24.9894    8.3502 H   0  0  0  0  0  0  0  0  0  0  0  0
   41.7179   26.9291    7.7783 H   0  0  0  0  0  0  0  0  0  0  0  0
   42.8061   28.4804    9.2156 H   0  0  0  0  0  0  0  0  0  0  0  0
   44.9786   27.6318    9.0136 H   0  0  0  0  0  0  0  0  0  0  0  0
   44.8701   27.1700    6.7368 H   0  0  0  0  0  0  0  0  0  0  0  0
   43.6799   28.9992    6.0886 H   0  0  0  0  0  0  0  0  0  0  0  0
   44.6386   30.5457    7.5144 H   0  0  0  0  0  0  0  0  0  0  0  0
   46.8513   29.7595    7.3545 H   0  0  0  0  0  0  0  0  0  0  0  0
   46.8032   29.2573    5.0853 H   0  0  0  0  0  0  0  0  0  0  0  0
   45.5979   31.1030    4.3998 H   0  0  0  0  0  0  0  0  0  0  0  0
   46.5160   32.6109    5.8206 H   0  0  0  0  0  0  0  0  0  0  0  0
   48.6840   31.8394    5.6696 H   0  0  0  0  0  0  0  0  0  0  0  0
   48.6982   31.3259    3.4528 H   0  0  0  0  0  0  0  0  0  0  0  0
   47.5092   33.1552    2.6861 H   0  0  0  0  0  0  0  0  0  0  0  0
   48.3973   34.7471    4.0687 H   0  0  0  0  0  0  0  0  0  0  0  0
   50.5848   34.0323    3.9882 H   0  0  0  0  0  0  0  0  0  0  0  0
   50.6191   33.4490    1.8096 H   0  0  0  0  0  0  0  0  0  0  0  0
   49.4176   35.2438    1.0096 H   0  0  0  0  0  0  0  0  0  0  0  0
   50.2381   36.8177    2.3859 H   0  0  0  0  0  0  0  0  0  0  0  0
   52.4383   36.1421    2.3335 H   0  0  0  0  0  0  0  0  0  0  0  0
   52.5013   35.5357    0.1460 H   0  0  0  0  0  0  0  0  0  0  0  0
   51.2621   37.2687   -0.7074 H   0  0  0  0  0  0  0  0  0  0  0  0
   52.1273   38.9488    0.6310 H   0  0  0  0  0  0  0  0  0  0  0  0
   54.2850   38.2843    0.6557 H   0  0  0  0  0  0  0  0  0  0  0  0
   54.4240   37.6380   -1.5551 H   0  0  0  0  0  0  0  0  0  0  0  0
   53.1857   39.3675   -2.4744 H   0  0  0  0  0  0  0  0  0  0  0  0
   53.9098   40.9993   -1.1095 H   0  0  0  0  0  0  0  0  0  0  0  0
   56.1270   40.3712   -1.0600 H   0  0  0  0  0  0  0  0  0  0  0  0
   56.2990   39.7173   -3.2703 H   0  0  0  0  0  0  0  0  0  0  0  0
   55.0615   41.4204   -4.2026 H   0  0  0  0  0  0  0  0  0  0  0  0
   55.7548   43.0948   -2.8929 H   0  0  0  0  0  0  0  0  0  0  0  0
   57.9817   42.5185   -2.7688 H   0  0  0  0  0  0  0  0  0  0  0  0
   58.1974   41.8078   -4.9532 H   0  0  0  0  0  0  0  0  0  0  0  0
   56.9140   43.4277   -5.9212 H   0  0  0  0  0  0  0  0  0  0  0  0
   57.6588   45.1955   -4.6382 H   0  0  0  0  0  0  0  0  0  0  0  0
   59.8212   44.6024   -4.4988 H   0  0  0  0  0  0  0  0  0  0  0  0
   60.0945   43.9199   -6.6292 H   0  0  0  0  0  0  0  0  0  0  0  0
   58.8618   45.4949   -7.6628 H   0  0  0  0  0  0  0  0  0  0  0  0
   61.0041   47.2210   -7.0330 H   0  0  0  0  0  0  0  0  0  0  0  0
   59.5043   47.2612   -6.4022 H   0  0  0  0  0  0  0  0  0  0  0  0
  1  2  1  0  0  0  0
  1 82  1  0  0  0  0
  1 83  1  0  0  0  0
  1 84  1  0  0  0  0
  2  3  1  0  0  0  0
  2 85  1  0  0  0  0
  3  4  1  0  0  0  0
  3 86  1  0  0  0  0
  3 87  1  0  0  0  0
  4  5  1  0  0  0  0
  4 88  1  0  0  0  0
  4 89  1  0  0  0  0
  5  6  1  0  0  0  0
  5 90  1  0  0  0  0
  6  7  1  0  0  0  0
  6 91  1  0  0  0  0
  7  8  1  0  0  0  0
  7 92  1  0  0  0  0
  8  9  1  0  0  0  0
  8 93  1  0  0  0  0
  9 10  1  0  0  0  0
  9 94  1  0  0  0  0
 10 11  1  0  0  0  0
 10 95  1  0  0  0  0
 11 12  1  0  0  0  0
 11 96  1  0  0  0  0
 12 13  1  0  0  0  0
 12 97  1  0  0  0  0
 13 14  1  0  0  0  0
 13 98  1  0  0  0  0
 14 15  1  0  0  0  0
 14 99  1  0  0  0  0
 15 16  1  0  0  0  0
 15100  1  0  0  0  0
 16 17  1  0  0  0  0
 16101  1  0  0  0  0
 17 18  1  0  0  0  0
 17102  1  0  0  0  0
 18 19  1  0  0  0  0
 18103  1  0  0  0  0
 19 20  1  0  0  0  0
 19104  1  0  0  0  0
 20 21  1  0  0  0  0
 20105  1  0  0  0  0
 21 22  1  0  0  0  0
 21106  1  0  0  0  0
 22 23  1  0  0  0  0
 22107  1  0  0  0  0
 23 24  1  0  0  0  0
 23108  1  0  0  0  0
 24 25  1  0  0  0  0
 24109  1  0  0  0  0
 25 26  1  0  0  0  0
 25110  1  0  0  0  0
 26 27  1  0  0  0  0
 26111  1  0  0  0  0
 27 28  1  0  0  0  0
 27112  1  0  0  0  0
 28 29  1  0  0  0  0
 28113  1  0  0  0  0
 29 30  1  0  0  0  0
 29114  1  0  0  0  0
 30 31  1  0  0  0  0
 30115  1  0  0  0  0
 31 32  1  0  0  0  0
 31116  1  0  0  0  0
 32 33  1  0  0  0  0
 32117  1  0  0  0  0
 33 34  1  0  0  0  0
 33118  1  0  0  0  0
 34 35  1  0  0  0  0
 35 36  1  0  0  0  0
 35119  1  0  0  0  0
 36 37  1  0  0  0  0
 37 38  1  0  0  0  0
 37120  1  0  0  0  0
 38 39  1  0  0  0  0
 39 40  1  0  0  0  0
 39121  1  0  0  0  0
 40 41  1  0  0  0  0
 41 42  1  0  0  0  0
 41122  1  0  0  0  0
 42 43  1  0  0  0  0
 43 44  1  0  0  0  0
 43123  1  0  0  0  0
 44 45  1  0  0  0  0
 44124  1  0  0  0  0
 45 46  1  0  0  0  0
 45125  1  0  0  0  0
 46 47  1  0  0  0  0
 46126  1  0  0  0  0
 47 48  1  0  0  0  0
 47127  1  0  0  0  0
 48 49  1  0  0  0  0
 48128  1  0  0  0  0
 49 50  1  0  0  0  0
 49129  1  0  0  0  0
 50 51  1  0  0  0  0
 50130  1  0  0  0  0
 51 52  1  0  0  0  0
 51131  1  0  0  0  0
 52 53  1  0  0  0  0
 52132  1  0  0  0  0
 53 54  1  0  0  0  0
 53133  1  0  0  0  0
 54 55  1  0  0  0  0
 54134  1  0  0  0  0
 55 56  1  0  0  0  0
 55135  1  0  0  0  0
 56 57  1  0  0  0  0
 56136  1  0  0  0  0
 57 58  1  0  0  0  0
 57137  1  0  0  0  0
 58 59  1  0  0  0  0
 58138  1  0  0  0  0
 59 60  1  0  0  0  0
 59139  1  0  0  0  0
 60 61  1  0  0  0  0
 60140  1  0  0  0  0
 61 62  1  0  0  0  0
 61141  1  0  0  0  0
 62 63  1  0  0  0  0
 62142  1  0  0  0  0
 63 64  1  0  0  0  0
 63143  1  0  0  0  0
 64 65  1  0  0  0  0
 64144  1  0  0  0  0
 65 66  1  0  0  0  0
 65145  1  0  0  0  0
 66 67  1  0  0  0  0
 66146  1  0  0  0  0
 67 68  1  0  0  0  0
 67147  1  0  0  0  0
 68 69  1  0  0  0  0
 68148  1  0  0  0  0
 69 70  1  0  0  0  0
 69149  1  0  0  0  0
 70 71  1  0  0  0  0
 70150  1  0  0  0  0
 71 72  1  0  0  0  0
 71151  1  0  0  0  0
 72 73  1  0  0  0  0
 72152  1  0  0  0  0
 73 74  1  0  0  0  0
 73153  1  0  0  0  0
 74 75  1  0  0  0  0
 74154  1  0  0  0  0
 75 76  1  0  0  0  0
 75155  1  0  0  0  0
 76 77  1  0  0  0  0
 76156  1  0  0  0  0
 77 78  1  0  0  0  0
 77157  1  0  0  0  0
 78 79  1  0  0  0  0
 78158  1  0  0  0  0
 79 80  1  0  0  0  0
 79159  1  0  0  0  0
 80 81  1  0  0  0  0
 80160  1  0  0  0  0
 81161  1  0  0  0  0
 81162  1  0  0  0  0
M  END
$$$$
