
 OpenBabel04232216493D

237237  0  0  1  0  0  0  0  0999 V2000
   -0.4961   -2.2958   -2.4059 C   0  0  0  0  0  0  0  0  0  0  0  0
    0.3449   -1.1870   -1.7593 C   0  0  3  0  0  0  0  0  0  0  0  0
   -0.1543    0.1677   -2.2778 C   0  0  0  0  0  0  0  0  0  0  0  0
    0.6116    1.3344   -1.6687 C   0  0  0  0  0  0  0  0  0  0  0  0
    0.5101    1.3175   -0.1514 C   0  0  0  0  0  0  0  0  0  0  0  0
    1.0417    0.0067    0.3931 C   0  0  0  0  0  0  0  0  0  0  0  0
    0.3300   -1.2297   -0.2036 C   0  0  3  0  0  0  0  0  0  0  0  0
    0.9491   -2.5141    0.3932 C   0  0  0  0  0  0  0  0  0  0  0  0
    2.4471   -2.5956    0.1292 C   0  0  0  0  0  0  0  0  0  0  0  0
    3.0925   -3.8529    0.6629 C   0  0  0  0  0  0  0  0  0  0  0  0
    4.5572   -3.8185    0.2494 C   0  0  0  0  0  0  0  0  0  0  0  0
    5.2699   -5.0306    0.7952 C   0  0  0  0  0  0  0  0  0  0  0  0
    6.7287   -5.0048    0.3874 C   0  0  0  0  0  0  0  0  0  0  0  0
    7.4103   -6.2291    0.9609 C   0  0  0  0  0  0  0  0  0  0  0  0
    8.8720   -6.2399    0.5713 C   0  0  0  0  0  0  0  0  0  0  0  0
    9.5370   -7.4710    1.1533 C   0  0  0  0  0  0  0  0  0  0  0  0
   11.0006   -7.4895    0.7651 C   0  0  0  0  0  0  0  0  0  0  0  0
   11.6676   -8.7211    1.3441 C   0  0  0  0  0  0  0  0  0  0  0  0
   13.1326   -8.7377    0.9565 C   0  0  0  0  0  0  0  0  0  0  0  0
   13.8021   -9.9687    1.5345 C   0  0  0  0  0  0  0  0  0  0  0  0
   15.2678   -9.9853    1.1466 C   0  0  0  0  0  0  0  0  0  0  0  0
   15.9377  -11.2167    1.7246 C   0  0  0  0  0  0  0  0  0  0  0  0
   17.4035  -11.2343    1.3363 C   0  0  0  0  0  0  0  0  0  0  0  0
   18.0742  -12.4648    1.9162 C   0  0  0  0  0  0  0  0  0  0  0  0
   19.5411  -12.4827    1.5293 C   0  0  0  0  0  0  0  0  0  0  0  0
   20.2119  -13.7123    2.1067 C   0  0  0  0  0  0  0  0  0  0  0  0
   21.6772  -13.7317    1.7179 C   0  0  0  0  0  0  0  0  0  0  0  0
   22.3495  -14.9609    2.2920 C   0  0  0  0  0  0  0  0  0  0  0  0
   23.8149  -14.9793    1.9037 C   0  0  0  0  0  0  0  0  0  0  0  0
   24.4834  -16.2129    2.4782 C   0  0  0  0  0  0  0  0  0  0  0  0
   25.9495  -16.2312    2.0935 C   0  0  0  0  0  0  0  0  0  0  0  0
   26.6182  -17.4659    2.6675 C   0  0  0  0  0  0  0  0  0  0  0  0
   28.0851  -17.4812    2.2825 C   0  0  0  0  0  0  0  0  0  0  0  0
   28.7558  -18.7140    2.8575 C   0  0  0  0  0  0  0  0  0  0  0  0
   30.2224  -18.7303    2.4708 C   0  0  0  0  0  0  0  0  0  0  0  0
   30.8915  -19.9648    3.0442 C   0  0  0  0  0  0  0  0  0  0  0  0
   32.3586  -19.9803    2.6603 C   0  0  0  0  0  0  0  0  0  0  0  0
   33.0277  -21.2142    3.2347 C   0  0  0  0  0  0  0  0  0  0  0  0
   34.4945  -21.2301    2.8497 C   0  0  0  0  0  0  0  0  0  0  0  0
   35.1635  -22.4648    3.4225 C   0  0  0  0  0  0  0  0  0  0  0  0
   36.6307  -22.4796    3.0388 C   0  0  0  0  0  0  0  0  0  0  0  0
   37.2998  -23.7144    3.6114 C   0  0  0  0  0  0  0  0  0  0  0  0
   38.7666  -23.7303    3.2261 C   0  0  0  0  0  0  0  0  0  0  0  0
   39.4350  -24.9662    3.7969 C   0  0  0  0  0  0  0  0  0  0  0  0
   40.9018  -24.9822    3.4118 C   0  0  0  0  0  0  0  0  0  0  0  0
   41.5701  -26.2184    3.9824 C   0  0  0  0  0  0  0  0  0  0  0  0
   43.0370  -26.2342    3.5975 C   0  0  0  0  0  0  0  0  0  0  0  0
   43.7054  -27.4703    4.1679 C   0  0  0  0  0  0  0  0  0  0  0  0
   45.1722  -27.4863    3.7823 C   0  0  0  0  0  0  0  0  0  0  0  0
   45.8407  -28.7224    4.3528 C   0  0  0  0  0  0  0  0  0  0  0  0
   47.3080  -28.7373    3.9692 C   0  0  0  0  0  0  0  0  0  0  0  0
   47.9770  -29.9721    4.5419 C   0  0  0  0  0  0  0  0  0  0  0  0
   49.4444  -29.9868    4.1588 C   0  0  0  0  0  0  0  0  0  0  0  0
   50.1140  -31.2207    4.7331 C   0  0  0  0  0  0  0  0  0  0  0  0
   51.5814  -31.2354    4.3496 C   0  0  0  0  0  0  0  0  0  0  0  0
   52.2511  -32.4692    4.9239 C   0  0  0  0  0  0  0  0  0  0  0  0
   53.7188  -32.4848    4.5406 C   0  0  0  0  0  0  0  0  0  0  0  0
   54.3877  -33.7187    5.1154 C   0  0  0  0  0  0  0  0  0  0  0  0
   55.8552  -33.7353    4.7323 C   0  0  0  0  0  0  0  0  0  0  0  0
   56.5251  -34.9679    5.3085 C   0  0  0  0  0  0  0  0  0  0  0  0
   57.9920  -34.9815    4.9238 C   0  0  0  0  0  0  0  0  0  0  0  0
   58.6622  -36.2147    5.4972 C   0  0  0  0  0  0  0  0  0  0  0  0
   60.1292  -36.2298    5.1111 C   0  0  0  0  0  0  0  0  0  0  0  0
   60.7978  -37.4649    5.6839 C   0  0  0  0  0  0  0  0  0  0  0  0
   62.2643  -37.4830    5.2973 C   0  0  0  0  0  0  0  0  0  0  0  0
   62.9327  -38.7178    5.8710 C   0  0  0  0  0  0  0  0  0  0  0  0
   64.3997  -38.7352    5.4852 C   0  0  0  0  0  0  0  0  0  0  0  0
   65.0686  -39.9714    6.0552 C   0  0  0  0  0  0  0  0  0  0  0  0
   66.5346  -39.9887    5.6659 C   0  0  0  0  0  0  0  0  0  0  0  0
   67.2044  -41.2247    6.2360 C   0  0  0  0  0  0  0  0  0  0  0  0
   68.6712  -41.2425    5.8483 C   0  0  0  0  0  0  0  0  0  0  0  0
   69.3423  -42.4776    6.4208 C   0  0  0  0  0  0  0  0  0  0  0  0
   70.8106  -42.4968    6.0342 C   0  0  0  0  0  0  0  0  0  0  0  0
   71.4836  -43.7323    6.6070 C   0  0  0  0  0  0  0  0  0  0  0  0
   72.9534  -43.7530    6.2231 C   0  0  0  0  0  0  0  0  0  0  0  0
   73.6301  -44.9873    6.7961 C   0  0  0  0  0  0  0  0  0  0  0  0
   75.1050  -45.0115    6.4136 C   0  0  0  0  0  0  0  0  0  0  0  0
   75.7926  -46.2459    6.9812 C   0  0  0  0  0  0  0  0  0  0  0  0
   77.2588  -46.2643    6.5991 C   0  0  0  0  0  0  0  0  0  0  0  0
   -0.5452   -2.1544   -3.4927 H   0  0  0  0  0  0  0  0  0  0  0  0
   -1.5234   -2.2904   -2.0262 H   0  0  0  0  0  0  0  0  0  0  0  0
   -0.0686   -3.2881   -2.2329 H   0  0  0  0  0  0  0  0  0  0  0  0
    1.3740   -1.3082   -2.1184 H   0  0  0  0  0  0  0  0  0  0  0  0
   -1.2206    0.2799   -2.0526 H   0  0  0  0  0  0  0  0  0  0  0  0
   -0.0509    0.2086   -3.3676 H   0  0  0  0  0  0  0  0  0  0  0  0
    0.2125    2.2818   -2.0515 H   0  0  0  0  0  0  0  0  0  0  0  0
    1.6652    1.2855   -1.9722 H   0  0  0  0  0  0  0  0  0  0  0  0
   -0.5285    1.4580    0.1655 H   0  0  0  0  0  0  0  0  0  0  0  0
    1.0958    2.1467    0.2688 H   0  0  0  0  0  0  0  0  0  0  0  0
    0.9597   -0.0077    1.4865 H   0  0  0  0  0  0  0  0  0  0  0  0
    2.1109   -0.0116    0.1553 H   0  0  0  0  0  0  0  0  0  0  0  0
   -0.7192   -1.1992    0.1217 H   0  0  0  0  0  0  0  0  0  0  0  0
    0.4445   -3.4050    0.0030 H   0  0  0  0  0  0  0  0  0  0  0  0
    0.7800   -2.5212    1.4786 H   0  0  0  0  0  0  0  0  0  0  0  0
    2.9606   -1.7584    0.6121 H   0  0  0  0  0  0  0  0  0  0  0  0
    2.6455   -2.5250   -0.9444 H   0  0  0  0  0  0  0  0  0  0  0  0
    2.6022   -4.7463    0.2614 H   0  0  0  0  0  0  0  0  0  0  0  0
    3.0091   -3.8857    1.7559 H   0  0  0  0  0  0  0  0  0  0  0  0
    5.0364   -2.9038    0.6236 H   0  0  0  0  0  0  0  0  0  0  0  0
    4.6393   -3.7947   -0.8453 H   0  0  0  0  0  0  0  0  0  0  0  0
    4.7918   -5.9422    0.4173 H   0  0  0  0  0  0  0  0  0  0  0  0
    5.1887   -5.0454    1.8887 H   0  0  0  0  0  0  0  0  0  0  0  0
    7.2127   -4.0927    0.7588 H   0  0  0  0  0  0  0  0  0  0  0  0
    6.8184   -4.9973   -0.7062 H   0  0  0  0  0  0  0  0  0  0  0  0
    6.9171   -7.1368    0.5912 H   0  0  0  0  0  0  0  0  0  0  0  0
    7.3139   -6.2306    2.0539 H   0  0  0  0  0  0  0  0  0  0  0  0
    9.3663   -5.3338    0.9425 H   0  0  0  0  0  0  0  0  0  0  0  0
    8.9690   -6.2404   -0.5213 H   0  0  0  0  0  0  0  0  0  0  0  0
    9.0386   -8.3762    0.7842 H   0  0  0  0  0  0  0  0  0  0  0  0
    9.4378   -7.4695    2.2460 H   0  0  0  0  0  0  0  0  0  0  0  0
   11.4971   -6.5843    1.1359 H   0  0  0  0  0  0  0  0  0  0  0  0
   11.0976   -7.4892   -0.3276 H   0  0  0  0  0  0  0  0  0  0  0  0
   11.1708   -9.6257    0.9723 H   0  0  0  0  0  0  0  0  0  0  0  0
   11.5685   -8.7219    2.4367 H   0  0  0  0  0  0  0  0  0  0  0  0
   13.6283   -7.8321    1.3280 H   0  0  0  0  0  0  0  0  0  0  0  0
   13.2306   -8.7358   -0.1363 H   0  0  0  0  0  0  0  0  0  0  0  0
   13.3059  -10.8737    1.1628 H   0  0  0  0  0  0  0  0  0  0  0  0
   13.7037   -9.9698    2.6271 H   0  0  0  0  0  0  0  0  0  0  0  0
   15.7635   -9.0801    1.5183 H   0  0  0  0  0  0  0  0  0  0  0  0
   15.3657   -9.9837    0.0540 H   0  0  0  0  0  0  0  0  0  0  0  0
   15.4414  -12.1218    1.3533 H   0  0  0  0  0  0  0  0  0  0  0  0
   15.8398  -11.2177    2.8172 H   0  0  0  0  0  0  0  0  0  0  0  0
   17.8995  -10.3284    1.7062 H   0  0  0  0  0  0  0  0  0  0  0  0
   17.5012  -11.2346    0.2437 H   0  0  0  0  0  0  0  0  0  0  0  0
   17.5788  -13.3705    1.5454 H   0  0  0  0  0  0  0  0  0  0  0  0
   17.9758  -12.4649    3.0087 H   0  0  0  0  0  0  0  0  0  0  0  0
   20.0361  -11.5762    1.9006 H   0  0  0  0  0  0  0  0  0  0  0  0
   19.6389  -12.4804    0.4361 H   0  0  0  0  0  0  0  0  0  0  0  0
   19.7155  -14.6186    1.7361 H   0  0  0  0  0  0  0  0  0  0  0  0
   20.1148  -13.7140    3.1998 H   0  0  0  0  0  0  0  0  0  0  0  0
   22.1738  -12.8250    2.0905 H   0  0  0  0  0  0  0  0  0  0  0  0
   21.7746  -13.7267    0.6247 H   0  0  0  0  0  0  0  0  0  0  0  0
   21.8543  -15.8678    1.9186 H   0  0  0  0  0  0  0  0  0  0  0  0
   22.2518  -14.9662    3.3850 H   0  0  0  0  0  0  0  0  0  0  0  0
   24.3116  -14.0741    2.2772 H   0  0  0  0  0  0  0  0  0  0  0  0
   23.9124  -14.9745    0.8109 H   0  0  0  0  0  0  0  0  0  0  0  0
   23.9864  -17.1164    2.1026 H   0  0  0  0  0  0  0  0  0  0  0  0
   24.3829  -16.2185    3.5708 H   0  0  0  0  0  0  0  0  0  0  0  0
   26.4458  -15.3280    2.4698 H   0  0  0  0  0  0  0  0  0  0  0  0
   26.0496  -16.2254    1.0010 H   0  0  0  0  0  0  0  0  0  0  0  0
   26.1227  -18.3690    2.2907 H   0  0  0  0  0  0  0  0  0  0  0  0
   26.5177  -17.4721    3.7598 H   0  0  0  0  0  0  0  0  0  0  0  0
   28.5798  -16.5769    2.6579 H   0  0  0  0  0  0  0  0  0  0  0  0
   28.1850  -17.4761    1.1900 H   0  0  0  0  0  0  0  0  0  0  0  0
   28.2602  -19.6183    2.4834 H   0  0  0  0  0  0  0  0  0  0  0  0
   28.6573  -18.7181    3.9500 H   0  0  0  0  0  0  0  0  0  0  0  0
   30.7185  -17.8270    2.8466 H   0  0  0  0  0  0  0  0  0  0  0  0
   30.3217  -18.7244    1.3783 H   0  0  0  0  0  0  0  0  0  0  0  0
   30.3965  -20.8680    2.6667 H   0  0  0  0  0  0  0  0  0  0  0  0
   30.7906  -19.9717    4.1365 H   0  0  0  0  0  0  0  0  0  0  0  0
   32.8536  -19.0768    3.0371 H   0  0  0  0  0  0  0  0  0  0  0  0
   32.4595  -19.9742    1.5679 H   0  0  0  0  0  0  0  0  0  0  0  0
   32.5323  -22.1179    2.8587 H   0  0  0  0  0  0  0  0  0  0  0  0
   32.9276  -21.2199    4.3271 H   0  0  0  0  0  0  0  0  0  0  0  0
   34.9901  -20.3270    3.2268 H   0  0  0  0  0  0  0  0  0  0  0  0
   34.5947  -21.2232    1.7572 H   0  0  0  0  0  0  0  0  0  0  0  0
   34.6687  -23.3679    3.0442 H   0  0  0  0  0  0  0  0  0  0  0  0
   35.0623  -22.4726    4.5148 H   0  0  0  0  0  0  0  0  0  0  0  0
   37.1256  -21.5766    3.4171 H   0  0  0  0  0  0  0  0  0  0  0  0
   36.7319  -22.4718    1.9465 H   0  0  0  0  0  0  0  0  0  0  0  0
   36.8041  -24.6174    3.2342 H   0  0  0  0  0  0  0  0  0  0  0  0
   37.1998  -23.7215    4.7038 H   0  0  0  0  0  0  0  0  0  0  0  0
   39.2626  -22.8280    3.6047 H   0  0  0  0  0  0  0  0  0  0  0  0
   38.8666  -23.7216    2.1337 H   0  0  0  0  0  0  0  0  0  0  0  0
   38.9389  -25.8684    3.4183 H   0  0  0  0  0  0  0  0  0  0  0  0
   39.3349  -24.9749    4.8893 H   0  0  0  0  0  0  0  0  0  0  0  0
   41.3980  -24.0801    3.7906 H   0  0  0  0  0  0  0  0  0  0  0  0
   41.0020  -24.9734    2.3194 H   0  0  0  0  0  0  0  0  0  0  0  0
   41.0741  -27.1205    3.6034 H   0  0  0  0  0  0  0  0  0  0  0  0
   41.4698  -26.2274    5.0748 H   0  0  0  0  0  0  0  0  0  0  0  0
   43.5330  -25.3321    3.9764 H   0  0  0  0  0  0  0  0  0  0  0  0
   43.1372  -26.2252    2.5051 H   0  0  0  0  0  0  0  0  0  0  0  0
   43.2092  -28.3725    3.7893 H   0  0  0  0  0  0  0  0  0  0  0  0
   43.6057  -27.4792    5.2603 H   0  0  0  0  0  0  0  0  0  0  0  0
   45.6683  -26.5841    4.1608 H   0  0  0  0  0  0  0  0  0  0  0  0
   45.2720  -27.4776    2.6898 H   0  0  0  0  0  0  0  0  0  0  0  0
   45.3455  -29.6246    3.9730 H   0  0  0  0  0  0  0  0  0  0  0  0
   45.7395  -28.7319    5.4451 H   0  0  0  0  0  0  0  0  0  0  0  0
   47.8028  -27.8343    4.3477 H   0  0  0  0  0  0  0  0  0  0  0  0
   47.4092  -28.7293    2.8769 H   0  0  0  0  0  0  0  0  0  0  0  0
   47.4824  -30.8751    4.1633 H   0  0  0  0  0  0  0  0  0  0  0  0
   47.8754  -29.9800    5.6342 H   0  0  0  0  0  0  0  0  0  0  0  0
   49.9387  -29.0831    4.5363 H   0  0  0  0  0  0  0  0  0  0  0  0
   49.5459  -29.9802    3.0666 H   0  0  0  0  0  0  0  0  0  0  0  0
   49.6195  -32.1244    4.3560 H   0  0  0  0  0  0  0  0  0  0  0  0
   50.0128  -31.2271    5.8254 H   0  0  0  0  0  0  0  0  0  0  0  0
   52.0757  -30.3317    4.7270 H   0  0  0  0  0  0  0  0  0  0  0  0
   51.6826  -31.2288    3.2573 H   0  0  0  0  0  0  0  0  0  0  0  0
   51.7565  -33.3730    4.5469 H   0  0  0  0  0  0  0  0  0  0  0  0
   52.1497  -32.4754    6.0161 H   0  0  0  0  0  0  0  0  0  0  0  0
   54.2133  -31.5810    4.9174 H   0  0  0  0  0  0  0  0  0  0  0  0
   53.8201  -32.4786    3.4482 H   0  0  0  0  0  0  0  0  0  0  0  0
   53.8925  -34.6223    4.7392 H   0  0  0  0  0  0  0  0  0  0  0  0
   54.2866  -33.7242    6.2077 H   0  0  0  0  0  0  0  0  0  0  0  0
   56.3502  -32.8312    5.1080 H   0  0  0  0  0  0  0  0  0  0  0  0
   55.9568  -33.7310    3.6402 H   0  0  0  0  0  0  0  0  0  0  0  0
   56.0310  -35.8721    4.9325 H   0  0  0  0  0  0  0  0  0  0  0  0
   56.4239  -34.9732    6.4007 H   0  0  0  0  0  0  0  0  0  0  0  0
   58.4866  -34.0776    5.3001 H   0  0  0  0  0  0  0  0  0  0  0  0
   58.0920  -34.9751    3.8314 H   0  0  0  0  0  0  0  0  0  0  0  0
   58.1673  -37.1183    5.1209 H   0  0  0  0  0  0  0  0  0  0  0  0
   58.5629  -36.2204    6.5896 H   0  0  0  0  0  0  0  0  0  0  0  0
   60.6248  -35.3269    5.4886 H   0  0  0  0  0  0  0  0  0  0  0  0
   60.2289  -36.2225    4.0191 H   0  0  0  0  0  0  0  0  0  0  0  0
   60.3008  -38.3677    5.3078 H   0  0  0  0  0  0  0  0  0  0  0  0
   60.6987  -37.4710    6.7763 H   0  0  0  0  0  0  0  0  0  0  0  0
   62.7613  -36.5800    5.6728 H   0  0  0  0  0  0  0  0  0  0  0  0
   62.3631  -37.4774    4.2048 H   0  0  0  0  0  0  0  0  0  0  0  0
   62.4366  -39.6207    5.4939 H   0  0  0  0  0  0  0  0  0  0  0  0
   62.8326  -38.7246    6.9633 H   0  0  0  0  0  0  0  0  0  0  0  0
   64.8964  -37.8329    5.8628 H   0  0  0  0  0  0  0  0  0  0  0  0
   64.4985  -38.7272    4.3929 H   0  0  0  0  0  0  0  0  0  0  0  0
   64.5709  -40.8733    5.6778 H   0  0  0  0  0  0  0  0  0  0  0  0
   64.9713  -39.9804    7.1479 H   0  0  0  0  0  0  0  0  0  0  0  0
   67.0320  -39.0862    6.0421 H   0  0  0  0  0  0  0  0  0  0  0  0
   66.6312  -39.9809    4.5732 H   0  0  0  0  0  0  0  0  0  0  0  0
   66.7066  -42.1266    5.8589 H   0  0  0  0  0  0  0  0  0  0  0  0
   67.1059  -41.2324    7.3286 H   0  0  0  0  0  0  0  0  0  0  0  0
   69.1674  -40.3391    6.2236 H   0  0  0  0  0  0  0  0  0  0  0  0
   68.7684  -41.2361    4.7556 H   0  0  0  0  0  0  0  0  0  0  0  0
   68.8446  -43.3802    6.0453 H   0  0  0  0  0  0  0  0  0  0  0  0
   69.2430  -42.4830    7.5132 H   0  0  0  0  0  0  0  0  0  0  0  0
   71.3058  -41.5929    6.4095 H   0  0  0  0  0  0  0  0  0  0  0  0
   70.9078  -42.4902    4.9417 H   0  0  0  0  0  0  0  0  0  0  0  0
   70.9861  -44.6345    6.2306 H   0  0  0  0  0  0  0  0  0  0  0  0
   71.3824  -43.7377    7.6992 H   0  0  0  0  0  0  0  0  0  0  0  0
   73.4476  -42.8479    6.5979 H   0  0  0  0  0  0  0  0  0  0  0  0
   73.0516  -43.7463    5.1303 H   0  0  0  0  0  0  0  0  0  0  0  0
   73.1344  -45.8912    6.4210 H   0  0  0  0  0  0  0  0  0  0  0  0
   73.5304  -44.9928    7.8887 H   0  0  0  0  0  0  0  0  0  0  0  0
   75.5969  -44.1038    6.7884 H   0  0  0  0  0  0  0  0  0  0  0  0
   75.2017  -45.0015    5.3185 H   0  0  0  0  0  0  0  0  0  0  0  0
   75.3029  -47.1508    6.6053 H   0  0  0  0  0  0  0  0  0  0  0  0
   75.6987  -46.2548    8.0728 H   0  0  0  0  0  0  0  0  0  0  0  0
   77.3804  -46.2864    5.5113 H   0  0  0  0  0  0  0  0  0  0  0  0
   77.7559  -47.1566    7.0104 H   0  0  0  0  0  0  0  0  0  0  0  0
   77.7783  -45.3863    6.9871 H   0  0  0  0  0  0  0  0  0  0  0  0
  1  2  1  0  0  0  0
  1 80  1  0  0  0  0
  1 81  1  0  0  0  0
  1 82  1  0  0  0  0
  2  3  1  0  0  0  0
  2  7  1  0  0  0  0
  2 83  1  0  0  0  0
  3  4  1  0  0  0  0
  3 84  1  0  0  0  0
  3 85  1  0  0  0  0
  4  5  1  0  0  0  0
  4 86  1  0  0  0  0
  4 87  1  0  0  0  0
  5  6  1  0  0  0  0
  5 88  1  0  0  0  0
  5 89  1  0  0  0  0
  6  7  1  0  0  0  0
  6 90  1  0  0  0  0
  6 91  1  0  0  0  0
  7  8  1  0  0  0  0
  7 92  1  0  0  0  0
  8  9  1  0  0  0  0
  8 93  1  0  0  0  0
  8 94  1  0  0  0  0
  9 10  1  0  0  0  0
  9 95  1  0  0  0  0
  9 96  1  0  0  0  0
 10 11  1  0  0  0  0
 10 97  1  0  0  0  0
 10 98  1  0  0  0  0
 11 12  1  0  0  0  0
 11 99  1  0  0  0  0
 11100  1  0  0  0  0
 12 13  1  0  0  0  0
 12101  1  0  0  0  0
 12102  1  0  0  0  0
 13 14  1  0  0  0  0
 13103  1  0  0  0  0
 13104  1  0  0  0  0
 14 15  1  0  0  0  0
 14105  1  0  0  0  0
 14106  1  0  0  0  0
 15 16  1  0  0  0  0
 15107  1  0  0  0  0
 15108  1  0  0  0  0
 16 17  1  0  0  0  0
 16109  1  0  0  0  0
 16110  1  0  0  0  0
 17 18  1  0  0  0  0
 17111  1  0  0  0  0
 17112  1  0  0  0  0
 18 19  1  0  0  0  0
 18113  1  0  0  0  0
 18114  1  0  0  0  0
 19 20  1  0  0  0  0
 19115  1  0  0  0  0
 19116  1  0  0  0  0
 20 21  1  0  0  0  0
 20117  1  0  0  0  0
 20118  1  0  0  0  0
 21 22  1  0  0  0  0
 21119  1  0  0  0  0
 21120  1  0  0  0  0
 22 23  1  0  0  0  0
 22121  1  0  0  0  0
 22122  1  0  0  0  0
 23 24  1  0  0  0  0
 23123  1  0  0  0  0
 23124  1  0  0  0  0
 24 25  1  0  0  0  0
 24125  1  0  0  0  0
 24126  1  0  0  0  0
 25 26  1  0  0  0  0
 25127  1  0  0  0  0
 25128  1  0  0  0  0
 26 27  1  0  0  0  0
 26129  1  0  0  0  0
 26130  1  0  0  0  0
 27 28  1  0  0  0  0
 27131  1  0  0  0  0
 27132  1  0  0  0  0
 28 29  1  0  0  0  0
 28133  1  0  0  0  0
 28134  1  0  0  0  0
 29 30  1  0  0  0  0
 29135  1  0  0  0  0
 29136  1  0  0  0  0
 30 31  1  0  0  0  0
 30137  1  0  0  0  0
 30138  1  0  0  0  0
 31 32  1  0  0  0  0
 31139  1  0  0  0  0
 31140  1  0  0  0  0
 32 33  1  0  0  0  0
 32141  1  0  0  0  0
 32142  1  0  0  0  0
 33 34  1  0  0  0  0
 33143  1  0  0  0  0
 33144  1  0  0  0  0
 34 35  1  0  0  0  0
 34145  1  0  0  0  0
 34146  1  0  0  0  0
 35 36  1  0  0  0  0
 35147  1  0  0  0  0
 35148  1  0  0  0  0
 36 37  1  0  0  0  0
 36149  1  0  0  0  0
 36150  1  0  0  0  0
 37 38  1  0  0  0  0
 37151  1  0  0  0  0
 37152  1  0  0  0  0
 38 39  1  0  0  0  0
 38153  1  0  0  0  0
 38154  1  0  0  0  0
 39 40  1  0  0  0  0
 39155  1  0  0  0  0
 39156  1  0  0  0  0
 40 41  1  0  0  0  0
 40157  1  0  0  0  0
 40158  1  0  0  0  0
 41 42  1  0  0  0  0
 41159  1  0  0  0  0
 41160  1  0  0  0  0
 42 43  1  0  0  0  0
 42161  1  0  0  0  0
 42162  1  0  0  0  0
 43 44  1  0  0  0  0
 43163  1  0  0  0  0
 43164  1  0  0  0  0
 44 45  1  0  0  0  0
 44165  1  0  0  0  0
 44166  1  0  0  0  0
 45 46  1  0  0  0  0
 45167  1  0  0  0  0
 45168  1  0  0  0  0
 46 47  1  0  0  0  0
 46169  1  0  0  0  0
 46170  1  0  0  0  0
 47 48  1  0  0  0  0
 47171  1  0  0  0  0
 47172  1  0  0  0  0
 48 49  1  0  0  0  0
 48173  1  0  0  0  0
 48174  1  0  0  0  0
 49 50  1  0  0  0  0
 49175  1  0  0  0  0
 49176  1  0  0  0  0
 50 51  1  0  0  0  0
 50177  1  0  0  0  0
 50178  1  0  0  0  0
 51 52  1  0  0  0  0
 51179  1  0  0  0  0
 51180  1  0  0  0  0
 52 53  1  0  0  0  0
 52181  1  0  0  0  0
 52182  1  0  0  0  0
 53 54  1  0  0  0  0
 53183  1  0  0  0  0
 53184  1  0  0  0  0
 54 55  1  0  0  0  0
 54185  1  0  0  0  0
 54186  1  0  0  0  0
 55 56  1  0  0  0  0
 55187  1  0  0  0  0
 55188  1  0  0  0  0
 56 57  1  0  0  0  0
 56189  1  0  0  0  0
 56190  1  0  0  0  0
 57 58  1  0  0  0  0
 57191  1  0  0  0  0
 57192  1  0  0  0  0
 58 59  1  0  0  0  0
 58193  1  0  0  0  0
 58194  1  0  0  0  0
 59 60  1  0  0  0  0
 59195  1  0  0  0  0
 59196  1  0  0  0  0
 60 61  1  0  0  0  0
 60197  1  0  0  0  0
 60198  1  0  0  0  0
 61 62  1  0  0  0  0
 61199  1  0  0  0  0
 61200  1  0  0  0  0
 62 63  1  0  0  0  0
 62201  1  0  0  0  0
 62202  1  0  0  0  0
 63 64  1  0  0  0  0
 63203  1  0  0  0  0
 63204  1  0  0  0  0
 64 65  1  0  0  0  0
 64205  1  0  0  0  0
 64206  1  0  0  0  0
 65 66  1  0  0  0  0
 65207  1  0  0  0  0
 65208  1  0  0  0  0
 66 67  1  0  0  0  0
 66209  1  0  0  0  0
 66210  1  0  0  0  0
 67 68  1  0  0  0  0
 67211  1  0  0  0  0
 67212  1  0  0  0  0
 68 69  1  0  0  0  0
 68213  1  0  0  0  0
 68214  1  0  0  0  0
 69 70  1  0  0  0  0
 69215  1  0  0  0  0
 69216  1  0  0  0  0
 70 71  1  0  0  0  0
 70217  1  0  0  0  0
 70218  1  0  0  0  0
 71 72  1  0  0  0  0
 71219  1  0  0  0  0
 71220  1  0  0  0  0
 72 73  1  0  0  0  0
 72221  1  0  0  0  0
 72222  1  0  0  0  0
 73 74  1  0  0  0  0
 73223  1  0  0  0  0
 73224  1  0  0  0  0
 74 75  1  0  0  0  0
 74225  1  0  0  0  0
 74226  1  0  0  0  0
 75 76  1  0  0  0  0
 75227  1  0  0  0  0
 75228  1  0  0  0  0
 76 77  1  0  0  0  0
 76229  1  0  0  0  0
 76230  1  0  0  0  0
 77 78  1  0  0  0  0
 77231  1  0  0  0  0
 77232  1  0  0  0  0
 78 79  1  0  0  0  0
 78233  1  0  0  0  0
 78234  1  0  0  0  0
 79235  1  0  0  0  0
 79236  1  0  0  0  0
 79237  1  0  0  0  0
M  END
$$$$
