
 OpenBabel04232216403D

237236  0  0  0  0  0  0  0  0999 V2000
    1.4104    0.6798   -0.4608 C   0  0  0  0  0  0  0  0  0  0  0  0
    2.2692   -0.1971    0.0790 C   0  0  0  0  0  0  0  0  0  0  0  0
    3.0549    0.1033    1.3157 C   0  0  0  0  0  0  0  0  0  0  0  0
    4.5607    0.0406    1.0681 C   0  0  0  0  0  0  0  0  0  0  0  0
    5.3331    0.3501    2.3512 C   0  0  0  0  0  0  0  0  0  0  0  0
    6.7686    0.2792    2.0742 N   0  0  0  0  0  0  0  0  0  0  0  0
    7.4776    0.5676    3.2748 N   0  0  0  0  0  0  0  0  0  0  0  0
    8.8768    0.5053    3.0222 N   0  0  0  0  0  0  0  0  0  0  0  0
    9.5761    0.8039    4.2643 C   0  0  0  0  0  0  0  0  0  0  0  0
   11.0742    0.7367    3.9991 C   0  0  0  0  0  0  0  0  0  0  0  0
   11.8471    1.0398    5.2737 C   0  0  0  0  0  0  0  0  0  0  0  0
   13.3428    0.9754    5.0120 C   0  0  0  0  0  0  0  0  0  0  0  0
   14.1099    1.2809    6.2872 C   0  0  0  0  0  0  0  0  0  0  0  0
   15.6041    1.2146    6.0257 C   0  0  0  0  0  0  0  0  0  0  0  0
   16.3688    1.5201    7.3010 C   0  0  0  0  0  0  0  0  0  0  0  0
   17.8620    1.4554    7.0376 C   0  0  0  0  0  0  0  0  0  0  0  0
   18.6255    1.7629    8.3123 C   0  0  0  0  0  0  0  0  0  0  0  0
   20.1180    1.7000    8.0477 C   0  0  0  0  0  0  0  0  0  0  0  0
   20.8810    2.0055    9.3227 C   0  0  0  0  0  0  0  0  0  0  0  0
   22.3732    1.9406    9.0583 C   0  0  0  0  0  0  0  0  0  0  0  0
   23.1359    2.2441   10.3338 C   0  0  0  0  0  0  0  0  0  0  0  0
   24.6279    2.1810   10.0687 C   0  0  0  0  0  0  0  0  0  0  0  0
   25.3904    2.4826   11.3446 C   0  0  0  0  0  0  0  0  0  0  0  0
   26.8824    2.4215   11.0791 C   0  0  0  0  0  0  0  0  0  0  0  0
   27.6449    2.7231   12.3550 C   0  0  0  0  0  0  0  0  0  0  0  0
   29.1369    2.6601   12.0899 C   0  0  0  0  0  0  0  0  0  0  0  0
   29.8993    2.9616   13.3658 C   0  0  0  0  0  0  0  0  0  0  0  0
   31.3913    2.8986   13.1008 C   0  0  0  0  0  0  0  0  0  0  0  0
   32.1537    3.2001   14.3767 C   0  0  0  0  0  0  0  0  0  0  0  0
   33.6457    3.1371   14.1116 C   0  0  0  0  0  0  0  0  0  0  0  0
   34.4081    3.4387   15.3875 C   0  0  0  0  0  0  0  0  0  0  0  0
   35.9001    3.3756   15.1225 C   0  0  0  0  0  0  0  0  0  0  0  0
   36.6625    3.6752   16.3988 C   0  0  0  0  0  0  0  0  0  0  0  0
   38.1545    3.6122   16.1338 C   0  0  0  0  0  0  0  0  0  0  0  0
   38.9170    3.9118   17.4102 C   0  0  0  0  0  0  0  0  0  0  0  0
   40.4090    3.8489   17.1452 C   0  0  0  0  0  0  0  0  0  0  0  0
   41.1715    4.1464   18.4221 C   0  0  0  0  0  0  0  0  0  0  0  0
   42.6635    4.0858   18.1564 C   0  0  0  0  0  0  0  0  0  0  0  0
   43.4259    4.3810   19.4339 C   0  0  0  0  0  0  0  0  0  0  0  0
   44.9179    4.3218   19.1677 C   0  0  0  0  0  0  0  0  0  0  0  0
   45.6807    4.6154   20.4452 C   0  0  0  0  0  0  0  0  0  0  0  0
   47.1727    4.5544   20.1796 C   0  0  0  0  0  0  0  0  0  0  0  0
   47.9349    4.8483   21.4575 C   0  0  0  0  0  0  0  0  0  0  0  0
   49.4268    4.7872   21.1919 C   0  0  0  0  0  0  0  0  0  0  0  0
   50.1889    5.0814   22.4697 C   0  0  0  0  0  0  0  0  0  0  0  0
   51.6809    5.0197   22.2046 C   0  0  0  0  0  0  0  0  0  0  0  0
   52.4429    5.3141   23.4826 C   0  0  0  0  0  0  0  0  0  0  0  0
   53.9349    5.2550   23.2168 C   0  0  0  0  0  0  0  0  0  0  0  0
   54.6976    5.5506   24.4938 C   0  0  0  0  0  0  0  0  0  0  0  0
   56.1895    5.4895   24.2277 C   0  0  0  0  0  0  0  0  0  0  0  0
   56.9522    5.7853   25.5048 C   0  0  0  0  0  0  0  0  0  0  0  0
   58.4442    5.7222   25.2397 C   0  0  0  0  0  0  0  0  0  0  0  0
   59.2063    6.0198   26.5169 C   0  0  0  0  0  0  0  0  0  0  0  0
   60.6983    5.9558   26.2525 C   0  0  0  0  0  0  0  0  0  0  0  0
   61.4608    6.2505   27.5301 C   0  0  0  0  0  0  0  0  0  0  0  0
   62.9527    6.1879   27.2646 C   0  0  0  0  0  0  0  0  0  0  0  0
   63.7154    6.4855   28.5413 C   0  0  0  0  0  0  0  0  0  0  0  0
   65.2073    6.4225   28.2762 C   0  0  0  0  0  0  0  0  0  0  0  0
   65.9699    6.7221   29.5525 C   0  0  0  0  0  0  0  0  0  0  0  0
   67.4619    6.6591   29.2872 C   0  0  0  0  0  0  0  0  0  0  0  0
   68.2245    6.9587   30.5634 C   0  0  0  0  0  0  0  0  0  0  0  0
   69.7165    6.8958   30.2983 C   0  0  0  0  0  0  0  0  0  0  0  0
   70.4789    7.1954   31.5747 C   0  0  0  0  0  0  0  0  0  0  0  0
   71.9709    7.1325   31.3096 C   0  0  0  0  0  0  0  0  0  0  0  0
   72.7333    7.4321   32.5861 C   0  0  0  0  0  0  0  0  0  0  0  0
   74.2255    7.3694   32.3217 C   0  0  0  0  0  0  0  0  0  0  0  0
   74.9876    7.6690   33.5984 C   0  0  0  0  0  0  0  0  0  0  0  0
   76.4797    7.6062   33.3337 C   0  0  0  0  0  0  0  0  0  0  0  0
   77.2423    7.9039   34.6105 C   0  0  0  0  0  0  0  0  0  0  0  0
   78.7345    7.8409   34.3454 C   0  0  0  0  0  0  0  0  0  0  0  0
   79.4977    8.1385   35.6221 C   0  0  0  0  0  0  0  0  0  0  0  0
   80.9903    8.0757   35.3573 C   0  0  0  0  0  0  0  0  0  0  0  0
   81.7541    8.3734   36.6343 C   0  0  0  0  0  0  0  0  0  0  0  0
   83.2478    8.3109   36.3712 C   0  0  0  0  0  0  0  0  0  0  0  0
   84.0127    8.6107   37.6485 C   0  0  0  0  0  0  0  0  0  0  0  0
   85.5083    8.5489   37.3883 C   0  0  0  0  0  0  0  0  0  0  0  0
   86.2772    8.8488   38.6659 C   0  0  0  0  0  0  0  0  0  0  0  0
   87.7755    8.7853   38.4069 C   0  0  0  0  0  0  0  0  0  0  0  0
   88.5566    9.0860   39.6795 C   0  0  0  0  0  0  0  0  0  0  0  0
   90.0499    9.0221   39.4191 C   0  0  0  0  0  0  0  0  0  0  0  0
    0.8566    0.4306   -1.3552 H   0  0  0  0  0  0  0  0  0  0  0  0
    1.2525    1.6568   -0.0143 H   0  0  0  0  0  0  0  0  0  0  0  0
    2.3960   -1.1632   -0.3960 H   0  0  0  0  0  0  0  0  0  0  0  0
    2.7813   -0.6164    2.0976 H   0  0  0  0  0  0  0  0  0  0  0  0
    2.7943    1.1010    1.6945 H   0  0  0  0  0  0  0  0  0  0  0  0
    4.8376    0.7583    0.2851 H   0  0  0  0  0  0  0  0  0  0  0  0
    4.8359   -0.9576    0.7040 H   0  0  0  0  0  0  0  0  0  0  0  0
    5.0599   -0.3785    3.1253 H   0  0  0  0  0  0  0  0  0  0  0  0
    5.0618    1.3495    2.7156 H   0  0  0  0  0  0  0  0  0  0  0  0
    7.0011    0.9753    1.3669 H   0  0  0  0  0  0  0  0  0  0  0  0
    7.2345   -0.1327    3.9757 H   0  0  0  0  0  0  0  0  0  0  0  0
    9.1159    1.2016    2.3169 H   0  0  0  0  0  0  0  0  0  0  0  0
    9.3137    0.0727    5.0396 H   0  0  0  0  0  0  0  0  0  0  0  0
    9.3096    1.8023    4.6339 H   0  0  0  0  0  0  0  0  0  0  0  0
   11.3538    1.4565    3.2192 H   0  0  0  0  0  0  0  0  0  0  0  0
   11.3473   -0.2611    3.6317 H   0  0  0  0  0  0  0  0  0  0  0  0
   11.5761    0.3187    6.0547 H   0  0  0  0  0  0  0  0  0  0  0  0
   11.5780    2.0364    5.6446 H   0  0  0  0  0  0  0  0  0  0  0  0
   13.6172    1.6957    4.2315 H   0  0  0  0  0  0  0  0  0  0  0  0
   13.6155   -0.0213    4.6438 H   0  0  0  0  0  0  0  0  0  0  0  0
   13.8366    0.5618    7.0692 H   0  0  0  0  0  0  0  0  0  0  0  0
   13.8404    2.2785    6.6555 H   0  0  0  0  0  0  0  0  0  0  0  0
   15.8794    1.9341    5.2447 H   0  0  0  0  0  0  0  0  0  0  0  0
   15.8756    0.2172    5.6584 H   0  0  0  0  0  0  0  0  0  0  0  0
   16.0962    0.8000    8.0824 H   0  0  0  0  0  0  0  0  0  0  0  0
   16.0979    2.5171    7.6698 H   0  0  0  0  0  0  0  0  0  0  0  0
   18.1355    2.1748    6.2559 H   0  0  0  0  0  0  0  0  0  0  0  0
   18.1343    0.4582    6.6707 H   0  0  0  0  0  0  0  0  0  0  0  0
   18.3539    1.0428    9.0940 H   0  0  0  0  0  0  0  0  0  0  0  0
   18.3531    2.7598    8.6804 H   0  0  0  0  0  0  0  0  0  0  0  0
   20.3904    2.4212    7.2672 H   0  0  0  0  0  0  0  0  0  0  0  0
   20.3909    0.7037    7.6785 H   0  0  0  0  0  0  0  0  0  0  0  0
   20.6080    1.2852   10.1038 H   0  0  0  0  0  0  0  0  0  0  0  0
   20.6096    3.0025    9.6914 H   0  0  0  0  0  0  0  0  0  0  0  0
   22.6467    2.6619    8.2783 H   0  0  0  0  0  0  0  0  0  0  0  0
   22.6446    0.9441    8.6885 H   0  0  0  0  0  0  0  0  0  0  0  0
   22.8636    1.5219   11.1133 H   0  0  0  0  0  0  0  0  0  0  0  0
   22.8636    3.2400   10.7045 H   0  0  0  0  0  0  0  0  0  0  0  0
   24.9004    2.9042    9.2902 H   0  0  0  0  0  0  0  0  0  0  0  0
   24.9001    1.1856    9.6967 H   0  0  0  0  0  0  0  0  0  0  0  0
   25.1190    1.7585   12.1227 H   0  0  0  0  0  0  0  0  0  0  0  0
   25.1173    3.4775   11.7174 H   0  0  0  0  0  0  0  0  0  0  0  0
   27.1540    3.1456   10.3010 H   0  0  0  0  0  0  0  0  0  0  0  0
   27.1556    1.4266   10.7062 H   0  0  0  0  0  0  0  0  0  0  0  0
   27.3724    1.9999   13.1335 H   0  0  0  0  0  0  0  0  0  0  0  0
   27.3727    3.7185   12.7270 H   0  0  0  0  0  0  0  0  0  0  0  0
   29.4094    3.3832   11.3114 H   0  0  0  0  0  0  0  0  0  0  0  0
   29.4090    1.6646   11.7179 H   0  0  0  0  0  0  0  0  0  0  0  0
   29.6267    2.2384   14.1444 H   0  0  0  0  0  0  0  0  0  0  0  0
   29.6271    3.9571   13.7379 H   0  0  0  0  0  0  0  0  0  0  0  0
   31.6638    3.6218   12.3223 H   0  0  0  0  0  0  0  0  0  0  0  0
   31.6634    1.9031   12.7287 H   0  0  0  0  0  0  0  0  0  0  0  0
   31.8811    2.4769   15.1552 H   0  0  0  0  0  0  0  0  0  0  0  0
   31.8816    4.1956   14.7487 H   0  0  0  0  0  0  0  0  0  0  0  0
   33.9182    3.8603   13.3331 H   0  0  0  0  0  0  0  0  0  0  0  0
   33.9178    2.1416   13.7396 H   0  0  0  0  0  0  0  0  0  0  0  0
   34.1355    2.7154   16.1661 H   0  0  0  0  0  0  0  0  0  0  0  0
   34.1360    4.4341   15.7596 H   0  0  0  0  0  0  0  0  0  0  0  0
   36.1728    4.0998   14.3450 H   0  0  0  0  0  0  0  0  0  0  0  0
   36.1720    2.3806   14.7491 H   0  0  0  0  0  0  0  0  0  0  0  0
   36.3898    2.9510   17.1763 H   0  0  0  0  0  0  0  0  0  0  0  0
   36.3906    4.6702   16.7723 H   0  0  0  0  0  0  0  0  0  0  0  0
   38.4273    4.3364   15.3563 H   0  0  0  0  0  0  0  0  0  0  0  0
   38.4264    2.6172   15.7604 H   0  0  0  0  0  0  0  0  0  0  0  0
   38.6442    3.1876   18.1876 H   0  0  0  0  0  0  0  0  0  0  0  0
   38.6450    4.9068   17.7836 H   0  0  0  0  0  0  0  0  0  0  0  0
   40.6820    4.5741   16.3688 H   0  0  0  0  0  0  0  0  0  0  0  0
   40.6808    2.8544   16.7703 H   0  0  0  0  0  0  0  0  0  0  0  0
   40.8998    3.4200   19.1980 H   0  0  0  0  0  0  0  0  0  0  0  0
   40.8986    5.1402   18.7981 H   0  0  0  0  0  0  0  0  0  0  0  0
   42.9354    4.8130   17.3815 H   0  0  0  0  0  0  0  0  0  0  0  0
   42.9361    3.0925   17.7790 H   0  0  0  0  0  0  0  0  0  0  0  0
   43.1548    3.6527   20.2082 H   0  0  0  0  0  0  0  0  0  0  0  0
   43.1525    5.3737   19.8123 H   0  0  0  0  0  0  0  0  0  0  0  0
   45.1891    5.0508   18.3941 H   0  0  0  0  0  0  0  0  0  0  0  0
   45.1911    3.3293   18.7885 H   0  0  0  0  0  0  0  0  0  0  0  0
   45.4085    3.8874   21.2194 H   0  0  0  0  0  0  0  0  0  0  0  0
   45.4086    5.6085   20.8235 H   0  0  0  0  0  0  0  0  0  0  0  0
   47.4447    5.2829   19.4059 H   0  0  0  0  0  0  0  0  0  0  0  0
   47.4454    3.5616   19.8010 H   0  0  0  0  0  0  0  0  0  0  0  0
   47.6623    4.1206   22.2318 H   0  0  0  0  0  0  0  0  0  0  0  0
   47.6626    5.8415   21.8352 H   0  0  0  0  0  0  0  0  0  0  0  0
   49.6991    5.5153   20.4179 H   0  0  0  0  0  0  0  0  0  0  0  0
   49.6991    3.7941   20.8137 H   0  0  0  0  0  0  0  0  0  0  0  0
   49.9162    4.3537   23.2439 H   0  0  0  0  0  0  0  0  0  0  0  0
   49.9165    6.0746   22.8474 H   0  0  0  0  0  0  0  0  0  0  0  0
   51.9541    5.7471   21.4301 H   0  0  0  0  0  0  0  0  0  0  0  0
   51.9532    4.0263   21.8271 H   0  0  0  0  0  0  0  0  0  0  0  0
   52.1715    4.5853   24.2562 H   0  0  0  0  0  0  0  0  0  0  0  0
   52.1692    6.3066   23.8613 H   0  0  0  0  0  0  0  0  0  0  0  0
   54.2061    5.9826   22.4419 H   0  0  0  0  0  0  0  0  0  0  0  0
   54.2083    4.2619   22.8393 H   0  0  0  0  0  0  0  0  0  0  0  0
   54.4258    4.8232   25.2687 H   0  0  0  0  0  0  0  0  0  0  0  0
   54.4251    6.5439   24.8713 H   0  0  0  0  0  0  0  0  0  0  0  0
   56.4615    6.2166   23.4526 H   0  0  0  0  0  0  0  0  0  0  0  0
   56.4619    4.4960   23.8505 H   0  0  0  0  0  0  0  0  0  0  0  0
   56.6791    5.0593   26.2805 H   0  0  0  0  0  0  0  0  0  0  0  0
   56.6808    6.7795   25.8807 H   0  0  0  0  0  0  0  0  0  0  0  0
   58.7173    6.4476   24.4634 H   0  0  0  0  0  0  0  0  0  0  0  0
   58.7159    4.7277   24.8648 H   0  0  0  0  0  0  0  0  0  0  0  0
   58.9325    5.2949   27.2933 H   0  0  0  0  0  0  0  0  0  0  0  0
   58.9352    7.0146   26.8913 H   0  0  0  0  0  0  0  0  0  0  0  0
   60.9725    6.6817   25.4770 H   0  0  0  0  0  0  0  0  0  0  0  0
   60.9690    4.9614   25.8766 H   0  0  0  0  0  0  0  0  0  0  0  0
   61.1879    5.5235   28.3049 H   0  0  0  0  0  0  0  0  0  0  0  0
   61.1893    7.2442   27.9073 H   0  0  0  0  0  0  0  0  0  0  0  0
   63.2255    6.9133   26.4882 H   0  0  0  0  0  0  0  0  0  0  0  0
   63.2245    5.1934   26.8895 H   0  0  0  0  0  0  0  0  0  0  0  0
   63.4425    5.7602   29.3178 H   0  0  0  0  0  0  0  0  0  0  0  0
   63.4436    7.4800   28.9161 H   0  0  0  0  0  0  0  0  0  0  0  0
   65.4800    7.1468   27.4987 H   0  0  0  0  0  0  0  0  0  0  0  0
   65.4792    5.4275   27.9026 H   0  0  0  0  0  0  0  0  0  0  0  0
   65.6972    5.9978   30.3300 H   0  0  0  0  0  0  0  0  0  0  0  0
   65.6980    7.7171   29.9260 H   0  0  0  0  0  0  0  0  0  0  0  0
   67.7345    7.3834   28.5097 H   0  0  0  0  0  0  0  0  0  0  0  0
   67.7338    5.6642   28.9137 H   0  0  0  0  0  0  0  0  0  0  0  0
   67.9519    6.2344   31.3409 H   0  0  0  0  0  0  0  0  0  0  0  0
   67.9526    7.9537   30.9369 H   0  0  0  0  0  0  0  0  0  0  0  0
   69.9892    7.6201   29.5208 H   0  0  0  0  0  0  0  0  0  0  0  0
   69.9885    5.9008   29.9248 H   0  0  0  0  0  0  0  0  0  0  0  0
   70.2061    6.4712   32.3522 H   0  0  0  0  0  0  0  0  0  0  0  0
   70.2069    8.1904   31.9481 H   0  0  0  0  0  0  0  0  0  0  0  0
   72.2435    7.8568   30.5321 H   0  0  0  0  0  0  0  0  0  0  0  0
   72.2428    6.1375   30.9361 H   0  0  0  0  0  0  0  0  0  0  0  0
   72.4604    6.7079   33.3635 H   0  0  0  0  0  0  0  0  0  0  0  0
   72.4612    8.4271   32.9594 H   0  0  0  0  0  0  0  0  0  0  0  0
   74.4985    8.0937   31.5444 H   0  0  0  0  0  0  0  0  0  0  0  0
   74.4978    6.3744   31.9483 H   0  0  0  0  0  0  0  0  0  0  0  0
   74.7147    6.9448   34.3758 H   0  0  0  0  0  0  0  0  0  0  0  0
   74.7155    8.6640   33.9718 H   0  0  0  0  0  0  0  0  0  0  0  0
   76.7527    8.3315   32.5572 H   0  0  0  0  0  0  0  0  0  0  0  0
   76.7516    6.6117   32.9589 H   0  0  0  0  0  0  0  0  0  0  0  0
   76.9693    7.1786   35.3870 H   0  0  0  0  0  0  0  0  0  0  0  0
   76.9705    8.8984   34.9854 H   0  0  0  0  0  0  0  0  0  0  0  0
   79.0071    8.5661   33.5687 H   0  0  0  0  0  0  0  0  0  0  0  0
   79.0059    6.8464   33.9704 H   0  0  0  0  0  0  0  0  0  0  0  0
   79.2245    7.4132   36.3984 H   0  0  0  0  0  0  0  0  0  0  0  0
   79.2257    9.1330   35.9968 H   0  0  0  0  0  0  0  0  0  0  0  0
   81.2627    8.8009   34.5806 H   0  0  0  0  0  0  0  0  0  0  0  0
   81.2615    7.0811   34.9822 H   0  0  0  0  0  0  0  0  0  0  0  0
   81.4803    7.6480   37.4104 H   0  0  0  0  0  0  0  0  0  0  0  0
   81.4815    9.3677   37.0087 H   0  0  0  0  0  0  0  0  0  0  0  0
   83.5197    9.0350   35.5933 H   0  0  0  0  0  0  0  0  0  0  0  0
   83.5189    7.3159   35.9972 H   0  0  0  0  0  0  0  0  0  0  0  0
   83.7380    7.8863   38.4251 H   0  0  0  0  0  0  0  0  0  0  0  0
   83.7388    9.6054   38.0211 H   0  0  0  0  0  0  0  0  0  0  0  0
   85.7794    9.2727   36.6098 H   0  0  0  0  0  0  0  0  0  0  0  0
   85.7786    7.5539   37.0137 H   0  0  0  0  0  0  0  0  0  0  0  0
   86.0008    8.1252   39.4425 H   0  0  0  0  0  0  0  0  0  0  0  0
   86.0035    9.8440   39.0373 H   0  0  0  0  0  0  0  0  0  0  0  0
   88.0445    9.5065   37.6253 H   0  0  0  0  0  0  0  0  0  0  0  0
   88.0420    7.7891   38.0327 H   0  0  0  0  0  0  0  0  0  0  0  0
   88.2896    8.3643   40.4603 H   0  0  0  0  0  0  0  0  0  0  0  0
   88.2921   10.0823   40.0528 H   0  0  0  0  0  0  0  0  0  0  0  0
   90.3407    8.0268   39.0683 H   0  0  0  0  0  0  0  0  0  0  0  0
   90.6041    9.2389   40.3364 H   0  0  0  0  0  0  0  0  0  0  0  0
   90.3431    9.7531   38.6587 H   0  0  0  0  0  0  0  0  0  0  0  0
  1  2  2  0  0  0  0
  1 81  1  0  0  0  0
  1 82  1  0  0  0  0
  2  3  1  0  0  0  0
  2 83  1  0  0  0  0
  3  4  1  0  0  0  0
  3 84  1  0  0  0  0
  3 85  1  0  0  0  0
  4  5  1  0  0  0  0
  4 86  1  0  0  0  0
  4 87  1  0  0  0  0
  5  6  1  0  0  0  0
  5 88  1  0  0  0  0
  5 89  1  0  0  0  0
  6  7  1  0  0  0  0
  6 90  1  0  0  0  0
  7  8  1  0  0  0  0
  7 91  1  0  0  0  0
  8  9  1  0  0  0  0
  8 92  1  0  0  0  0
  9 10  1  0  0  0  0
  9 93  1  0  0  0  0
  9 94  1  0  0  0  0
 10 11  1  0  0  0  0
 10 95  1  0  0  0  0
 10 96  1  0  0  0  0
 11 12  1  0  0  0  0
 11 97  1  0  0  0  0
 11 98  1  0  0  0  0
 12 13  1  0  0  0  0
 12 99  1  0  0  0  0
 12100  1  0  0  0  0
 13 14  1  0  0  0  0
 13101  1  0  0  0  0
 13102  1  0  0  0  0
 14 15  1  0  0  0  0
 14103  1  0  0  0  0
 14104  1  0  0  0  0
 15 16  1  0  0  0  0
 15105  1  0  0  0  0
 15106  1  0  0  0  0
 16 17  1  0  0  0  0
 16107  1  0  0  0  0
 16108  1  0  0  0  0
 17 18  1  0  0  0  0
 17109  1  0  0  0  0
 17110  1  0  0  0  0
 18 19  1  0  0  0  0
 18111  1  0  0  0  0
 18112  1  0  0  0  0
 19 20  1  0  0  0  0
 19113  1  0  0  0  0
 19114  1  0  0  0  0
 20 21  1  0  0  0  0
 20115  1  0  0  0  0
 20116  1  0  0  0  0
 21 22  1  0  0  0  0
 21117  1  0  0  0  0
 21118  1  0  0  0  0
 22 23  1  0  0  0  0
 22119  1  0  0  0  0
 22120  1  0  0  0  0
 23 24  1  0  0  0  0
 23121  1  0  0  0  0
 23122  1  0  0  0  0
 24 25  1  0  0  0  0
 24123  1  0  0  0  0
 24124  1  0  0  0  0
 25 26  1  0  0  0  0
 25125  1  0  0  0  0
 25126  1  0  0  0  0
 26 27  1  0  0  0  0
 26127  1  0  0  0  0
 26128  1  0  0  0  0
 27 28  1  0  0  0  0
 27129  1  0  0  0  0
 27130  1  0  0  0  0
 28 29  1  0  0  0  0
 28131  1  0  0  0  0
 28132  1  0  0  0  0
 29 30  1  0  0  0  0
 29133  1  0  0  0  0
 29134  1  0  0  0  0
 30 31  1  0  0  0  0
 30135  1  0  0  0  0
 30136  1  0  0  0  0
 31 32  1  0  0  0  0
 31137  1  0  0  0  0
 31138  1  0  0  0  0
 32 33  1  0  0  0  0
 32139  1  0  0  0  0
 32140  1  0  0  0  0
 33 34  1  0  0  0  0
 33141  1  0  0  0  0
 33142  1  0  0  0  0
 34 35  1  0  0  0  0
 34143  1  0  0  0  0
 34144  1  0  0  0  0
 35 36  1  0  0  0  0
 35145  1  0  0  0  0
 35146  1  0  0  0  0
 36 37  1  0  0  0  0
 36147  1  0  0  0  0
 36148  1  0  0  0  0
 37 38  1  0  0  0  0
 37149  1  0  0  0  0
 37150  1  0  0  0  0
 38 39  1  0  0  0  0
 38151  1  0  0  0  0
 38152  1  0  0  0  0
 39 40  1  0  0  0  0
 39153  1  0  0  0  0
 39154  1  0  0  0  0
 40 41  1  0  0  0  0
 40155  1  0  0  0  0
 40156  1  0  0  0  0
 41 42  1  0  0  0  0
 41157  1  0  0  0  0
 41158  1  0  0  0  0
 42 43  1  0  0  0  0
 42159  1  0  0  0  0
 42160  1  0  0  0  0
 43 44  1  0  0  0  0
 43161  1  0  0  0  0
 43162  1  0  0  0  0
 44 45  1  0  0  0  0
 44163  1  0  0  0  0
 44164  1  0  0  0  0
 45 46  1  0  0  0  0
 45165  1  0  0  0  0
 45166  1  0  0  0  0
 46 47  1  0  0  0  0
 46167  1  0  0  0  0
 46168  1  0  0  0  0
 47 48  1  0  0  0  0
 47169  1  0  0  0  0
 47170  1  0  0  0  0
 48 49  1  0  0  0  0
 48171  1  0  0  0  0
 48172  1  0  0  0  0
 49 50  1  0  0  0  0
 49173  1  0  0  0  0
 49174  1  0  0  0  0
 50 51  1  0  0  0  0
 50175  1  0  0  0  0
 50176  1  0  0  0  0
 51 52  1  0  0  0  0
 51177  1  0  0  0  0
 51178  1  0  0  0  0
 52 53  1  0  0  0  0
 52179  1  0  0  0  0
 52180  1  0  0  0  0
 53 54  1  0  0  0  0
 53181  1  0  0  0  0
 53182  1  0  0  0  0
 54 55  1  0  0  0  0
 54183  1  0  0  0  0
 54184  1  0  0  0  0
 55 56  1  0  0  0  0
 55185  1  0  0  0  0
 55186  1  0  0  0  0
 56 57  1  0  0  0  0
 56187  1  0  0  0  0
 56188  1  0  0  0  0
 57 58  1  0  0  0  0
 57189  1  0  0  0  0
 57190  1  0  0  0  0
 58 59  1  0  0  0  0
 58191  1  0  0  0  0
 58192  1  0  0  0  0
 59 60  1  0  0  0  0
 59193  1  0  0  0  0
 59194  1  0  0  0  0
 60 61  1  0  0  0  0
 60195  1  0  0  0  0
 60196  1  0  0  0  0
 61 62  1  0  0  0  0
 61197  1  0  0  0  0
 61198  1  0  0  0  0
 62 63  1  0  0  0  0
 62199  1  0  0  0  0
 62200  1  0  0  0  0
 63 64  1  0  0  0  0
 63201  1  0  0  0  0
 63202  1  0  0  0  0
 64 65  1  0  0  0  0
 64203  1  0  0  0  0
 64204  1  0  0  0  0
 65 66  1  0  0  0  0
 65205  1  0  0  0  0
 65206  1  0  0  0  0
 66 67  1  0  0  0  0
 66207  1  0  0  0  0
 66208  1  0  0  0  0
 67 68  1  0  0  0  0
 67209  1  0  0  0  0
 67210  1  0  0  0  0
 68 69  1  0  0  0  0
 68211  1  0  0  0  0
 68212  1  0  0  0  0
 69 70  1  0  0  0  0
 69213  1  0  0  0  0
 69214  1  0  0  0  0
 70 71  1  0  0  0  0
 70215  1  0  0  0  0
 70216  1  0  0  0  0
 71 72  1  0  0  0  0
 71217  1  0  0  0  0
 71218  1  0  0  0  0
 72 73  1  0  0  0  0
 72219  1  0  0  0  0
 72220  1  0  0  0  0
 73 74  1  0  0  0  0
 73221  1  0  0  0  0
 73222  1  0  0  0  0
 74 75  1  0  0  0  0
 74223  1  0  0  0  0
 74224  1  0  0  0  0
 75 76  1  0  0  0  0
 75225  1  0  0  0  0
 75226  1  0  0  0  0
 76 77  1  0  0  0  0
 76227  1  0  0  0  0
 76228  1  0  0  0  0
 77 78  1  0  0  0  0
 77229  1  0  0  0  0
 77230  1  0  0  0  0
 78 79  1  0  0  0  0
 78231  1  0  0  0  0
 78232  1  0  0  0  0
 79 80  1  0  0  0  0
 79233  1  0  0  0  0
 79234  1  0  0  0  0
 80235  1  0  0  0  0
 80236  1  0  0  0  0
 80237  1  0  0  0  0
M  END
$$$$
