
 OpenBabel04232216463D

 57 58  0  0  0  0  0  0  0  0999 V2000
    5.9652    0.8327    2.9281 C   0  0  0  0  0  0  0  0  0  0  0  0
    6.9133    1.9962    2.6329 C   0  0  0  0  0  0  0  0  0  0  0  0
    6.1896    2.9031    1.8179 C   0  0  0  0  0  0  0  0  0  0  0  0
    6.0283    2.9777    0.4851 C   0  0  0  0  0  0  0  0  0  0  0  0
    6.2795    1.8029   -0.4359 C   0  0  0  0  0  0  0  0  0  0  0  0
    5.5521    4.2075    0.0336 N   0  0  0  0  0  0  0  0  0  0  0  0
    6.2653    5.2152    0.5151 C   0  0  0  0  0  0  0  0  0  0  0  0
    7.7421    5.3246    0.3408 C   0  0  0  0  0  0  0  0  0  0  0  0
    8.5323    4.7335   -0.5469 C   0  0  0  0  0  0  0  0  0  0  0  0
    9.9058    4.9551   -0.3897 C   0  0  0  0  0  0  0  0  0  0  0  0
   10.9338    4.1035   -0.2925 C   0  0  0  0  0  0  0  0  0  0  0  0
   10.9151    2.6338   -0.7137 C   0  0  0  0  0  0  0  0  0  0  0  0
   11.9521    2.0734   -1.0953 O   0  0  0  0  0  0  0  0  0  0  0  0
   11.8804    4.3579    0.7981 C   0  0  0  0  0  0  0  0  0  0  0  0
   11.5988    3.8174    1.9960 C   0  0  0  0  0  0  0  0  0  0  0  0
   10.3140    4.0383    2.7746 C   0  0  0  0  0  0  0  0  0  0  0  0
   10.6948    5.1922    3.8256 C   0  0  0  0  0  0  0  0  0  0  0  0
   11.0845    6.8014    3.5807 C   0  0  0  0  0  0  0  0  0  0  0  0
   10.2905    8.2011    3.4812 C   0  0  0  0  0  0  0  0  0  0  0  0
    8.8939    7.9479    2.9581 C   0  0  0  0  0  0  0  0  0  0  0  0
    7.8338    8.9729    3.2726 C   0  0  0  0  0  0  0  0  0  0  0  0
    6.4109    8.3626    3.2044 C   0  0  0  0  0  0  0  0  0  0  0  0
    5.7680    7.5782    1.9950 C   0  0  0  0  0  0  0  0  0  0  0  0
    5.6601    6.0427    1.7403 C   0  0  0  0  0  0  0  0  0  0  0  0
    9.3718    3.0423    2.5567 C   0  0  0  0  0  0  0  0  0  0  0  0
    8.1905    2.2336    3.1118 C   0  0  0  0  0  0  0  0  0  0  0  0
    5.0165    1.1878    3.3634 H   0  0  0  0  0  0  0  0  0  0  0  0
    6.3750    0.0618    3.5762 H   0  0  0  0  0  0  0  0  0  0  0  0
    5.6634    0.3302    1.9895 H   0  0  0  0  0  0  0  0  0  0  0  0
    5.5609    3.5668    2.4076 H   0  0  0  0  0  0  0  0  0  0  0  0
    5.3276    1.3654   -0.7680 H   0  0  0  0  0  0  0  0  0  0  0  0
    6.8134    0.9913    0.0736 H   0  0  0  0  0  0  0  0  0  0  0  0
    6.8657    2.0521   -1.3221 H   0  0  0  0  0  0  0  0  0  0  0  0
    8.1933    5.9211    1.1221 H   0  0  0  0  0  0  0  0  0  0  0  0
    8.1604    3.9826   -1.2757 H   0  0  0  0  0  0  0  0  0  0  0  0
   10.1393    5.9911   -0.0130 H   0  0  0  0  0  0  0  0  0  0  0  0
    9.9550    2.1427   -0.6881 H   0  0  0  0  0  0  0  0  0  0  0  0
   12.2157    5.4149    0.8374 H   0  0  0  0  0  0  0  0  0  0  0  0
   12.4591    3.7246    2.6633 H   0  0  0  0  0  0  0  0  0  0  0  0
   11.7458    4.9235    4.0653 H   0  0  0  0  0  0  0  0  0  0  0  0
   10.2286    5.0312    4.8004 H   0  0  0  0  0  0  0  0  0  0  0  0
   10.9447    6.9317    4.6481 H   0  0  0  0  0  0  0  0  0  0  0  0
   11.0148    6.7198    2.5081 H   0  0  0  0  0  0  0  0  0  0  0  0
   10.8511    8.9015    2.8307 H   0  0  0  0  0  0  0  0  0  0  0  0
   10.2987    8.7425    4.4470 H   0  0  0  0  0  0  0  0  0  0  0  0
    8.5715    7.0022    3.3904 H   0  0  0  0  0  0  0  0  0  0  0  0
    8.9629    7.8566    1.8728 H   0  0  0  0  0  0  0  0  0  0  0  0
    7.9280    9.8613    2.6324 H   0  0  0  0  0  0  0  0  0  0  0  0
    7.9793    9.3600    4.2969 H   0  0  0  0  0  0  0  0  0  0  0  0
    6.2331    7.8239    4.1440 H   0  0  0  0  0  0  0  0  0  0  0  0
    5.7835    9.2656    3.2804 H   0  0  0  0  0  0  0  0  0  0  0  0
    4.7220    7.7363    2.3096 H   0  0  0  0  0  0  0  0  0  0  0  0
    5.8735    8.1285    1.0603 H   0  0  0  0  0  0  0  0  0  0  0  0
    5.9176    5.5192    2.6681 H   0  0  0  0  0  0  0  0  0  0  0  0
    4.5816    5.8600    1.5917 H   0  0  0  0  0  0  0  0  0  0  0  0
    9.6718    2.3979    1.7178 H   0  0  0  0  0  0  0  0  0  0  0  0
    8.5804    1.3818    3.6619 H   0  0  0  0  0  0  0  0  0  0  0  0
  1  2  1  0  0  0  0
  1 27  1  0  0  0  0
  1 28  1  0  0  0  0
  1 29  1  0  0  0  0
  2  3  1  0  0  0  0
  2 26  2  0  0  0  0
  3  4  2  0  0  0  0
  3 30  1  0  0  0  0
  4  5  1  0  0  0  0
  4  6  1  0  0  0  0
  5 31  1  0  0  0  0
  5 32  1  0  0  0  0
  5 33  1  0  0  0  0
  6  7  2  0  0  0  0
  7  8  1  0  0  0  0
  7 24  1  0  0  0  0
  8  9  2  0  0  0  0
  8 34  1  0  0  0  0
  9 10  1  0  0  0  0
  9 35  1  0  0  0  0
 10 11  2  0  0  0  0
 10 36  1  0  0  0  0
 11 12  1  0  0  0  0
 11 14  1  0  0  0  0
 12 13  2  0  0  0  0
 12 37  1  0  0  0  0
 14 15  2  0  0  0  0
 14 38  1  0  0  0  0
 15 16  1  0  0  0  0
 15 39  1  0  0  0  0
 16 17  1  0  0  0  0
 16 25  2  0  0  0  0
 17 18  1  0  0  0  0
 17 40  1  0  0  0  0
 17 41  1  0  0  0  0
 18 19  1  0  0  0  0
 18 42  1  0  0  0  0
 18 43  1  0  0  0  0
 19 20  1  0  0  0  0
 19 44  1  0  0  0  0
 19 45  1  0  0  0  0
 20 21  1  0  0  0  0
 20 46  1  0  0  0  0
 20 47  1  0  0  0  0
 21 22  1  0  0  0  0
 21 48  1  0  0  0  0
 21 49  1  0  0  0  0
 22 23  1  0  0  0  0
 22 50  1  0  0  0  0
 22 51  1  0  0  0  0
 23 24  1  0  0  0  0
 23 52  1  0  0  0  0
 23 53  1  0  0  0  0
 24 54  1  0  0  0  0
 24 55  1  0  0  0  0
 25 26  1  0  0  0  0
 25 56  1  0  0  0  0
 26 57  1  0  0  0  0
M  END
$$$$
