
 OpenBabel04232216443D

 61 62  0  0  1  0  0  0  0  0999 V2000
    3.7648   -2.8293    2.1522 C   0  0  0  0  0  0  0  0  0  0  0  0
    4.7721   -3.6531    1.2406 C   0  0  3  0  0  0  0  0  0  0  0  0
    4.2187   -3.4070   -0.2563 C   0  0  3  0  0  3  0  0  0  0  0  0
    2.8080   -3.6903   -0.8757 C   0  0  0  0  0  0  0  0  0  0  0  0
    1.5055   -2.8997   -0.5593 C   0  0  0  0  0  0  0  0  0  0  0  0
    4.7796   -2.1279   -0.9056 C   0  0  0  0  0  0  0  0  0  0  0  0
    6.1521   -2.4473   -1.4540 C   0  0  0  0  0  0  0  0  0  0  0  0
    7.2474   -1.5521   -0.8339 C   0  0  0  0  0  0  0  0  0  0  0  0
    7.8283   -2.3277    0.2968 C   0  0  0  0  0  0  0  0  0  0  0  0
    9.2930   -2.2794    0.7066 C   0  0  0  0  0  0  0  0  0  0  0  0
    9.2936   -3.5825    1.3848 C   0  0  0  0  0  0  0  0  0  0  0  0
   10.1419   -4.2709    2.3623 C   0  0  0  0  0  0  0  0  0  0  0  0
   11.0231   -3.7298    2.9996 O   0  0  0  0  0  0  0  0  0  0  0  0
    9.8355   -5.7326    2.3252 C   0  0  0  0  0  0  0  0  0  0  0  0
    8.6394   -6.3441    1.9498 C   0  0  0  0  0  0  0  0  0  0  0  0
    8.9049   -7.8386    1.3983 C   0  0  0  0  0  0  0  0  0  0  0  0
    9.7603   -9.1136    1.9490 C   0  0  0  0  0  0  0  0  0  0  0  0
   11.0386   -9.2848    2.8344 C   0  0  0  0  0  0  0  0  0  0  0  0
   11.0019   -8.8682    4.3015 C   0  0  0  0  0  0  0  0  0  0  0  0
   11.0952   -7.3796    4.5889 C   0  0  0  0  0  0  0  0  0  0  0  0
   11.9509   -6.6052    3.6011 C   0  0  0  0  0  0  0  0  0  0  0  0
   11.2604   -6.3640    2.2509 C   0  0  0  0  0  0  0  0  0  0  0  0
    7.1019   -5.6573    1.4195 C   0  0  0  0  0  0  0  0  0  0  0  0
    6.1371   -4.6893    1.8441 C   0  0  0  0  0  0  0  0  0  0  0  0
    2.9292   -2.4160    1.5631 H   0  0  0  0  0  0  0  0  0  0  0  0
    4.2368   -1.9002    2.5192 H   0  0  0  0  0  0  0  0  0  0  0  0
    3.3163   -3.3567    2.9892 H   0  0  0  0  0  0  0  0  0  0  0  0
    5.4850   -2.8275    1.2228 H   0  0  0  0  0  0  0  0  0  0  0  0
    2.5875   -4.7561   -0.8304 H   0  0  0  0  0  0  0  0  0  0  0  0
    2.9270   -3.4868   -1.9563 H   0  0  0  0  0  0  0  0  0  0  0  0
    1.1410   -3.0498    0.4591 H   0  0  0  0  0  0  0  0  0  0  0  0
    0.6959   -3.2542   -1.2217 H   0  0  0  0  0  0  0  0  0  0  0  0
    1.5792   -1.8209   -0.7552 H   0  0  0  0  0  0  0  0  0  0  0  0
    4.7719   -1.3031   -0.1805 H   0  0  0  0  0  0  0  0  0  0  0  0
    4.1637   -1.7641   -1.7373 H   0  0  0  0  0  0  0  0  0  0  0  0
    6.1652   -2.3565   -2.5405 H   0  0  0  0  0  0  0  0  0  0  0  0
    6.3428   -3.5224   -1.2920 H   0  0  0  0  0  0  0  0  0  0  0  0
    6.8473   -0.6137   -0.4427 H   0  0  0  0  0  0  0  0  0  0  0  0
    8.0049   -1.3393   -1.5869 H   0  0  0  0  0  0  0  0  0  0  0  0
    7.6543   -3.3726    0.0092 H   0  0  0  0  0  0  0  0  0  0  0  0
    7.2459   -2.1475    1.2033 H   0  0  0  0  0  0  0  0  0  0  0  0
    9.5100   -1.4493    1.3981 H   0  0  0  0  0  0  0  0  0  0  0  0
    9.9742   -2.2491   -0.1396 H   0  0  0  0  0  0  0  0  0  0  0  0
    9.2733   -4.3238    0.5292 H   0  0  0  0  0  0  0  0  0  0  0  0
    8.3997   -3.6293    1.9996 H   0  0  0  0  0  0  0  0  0  0  0  0
    9.3749   -7.6374    0.4162 H   0  0  0  0  0  0  0  0  0  0  0  0
    7.9338   -8.2665    1.1280 H   0  0  0  0  0  0  0  0  0  0  0  0
   10.1091   -9.5813    1.0081 H   0  0  0  0  0  0  0  0  0  0  0  0
    9.0365   -9.8341    2.3432 H   0  0  0  0  0  0  0  0  0  0  0  0
   11.9596   -8.9313    2.3499 H   0  0  0  0  0  0  0  0  0  0  0  0
   11.2365  -10.3715    2.8649 H   0  0  0  0  0  0  0  0  0  0  0  0
   11.8615   -9.3418    4.8041 H   0  0  0  0  0  0  0  0  0  0  0  0
   10.1152   -9.2850    4.7895 H   0  0  0  0  0  0  0  0  0  0  0  0
   11.5230   -7.2484    5.5921 H   0  0  0  0  0  0  0  0  0  0  0  0
   10.0918   -6.9507    4.6386 H   0  0  0  0  0  0  0  0  0  0  0  0
   12.9166   -7.1092    3.4476 H   0  0  0  0  0  0  0  0  0  0  0  0
   12.1978   -5.6392    4.0536 H   0  0  0  0  0  0  0  0  0  0  0  0
   11.2977   -7.2373    1.6005 H   0  0  0  0  0  0  0  0  0  0  0  0
   11.9263   -5.7045    1.6760 H   0  0  0  0  0  0  0  0  0  0  0  0
    6.9201   -6.0624    0.4208 H   0  0  0  0  0  0  0  0  0  0  0  0
    6.3333   -4.2890    2.8440 H   0  0  0  0  0  0  0  0  0  0  0  0
  1  2  1  0  0  0  0
  1 25  1  0  0  0  0
  1 26  1  0  0  0  0
  1 27  1  0  0  0  0
  2  3  1  0  0  0  0
  2 24  1  0  0  0  0
  2 28  1  0  0  0  0
  3  4  1  0  0  0  0
  3  6  1  0  0  0  0
  4  5  1  0  0  0  0
  4 29  1  0  0  0  0
  4 30  1  0  0  0  0
  5 31  1  0  0  0  0
  5 32  1  0  0  0  0
  5 33  1  0  0  0  0
  6  7  1  0  0  0  0
  6 34  1  0  0  0  0
  6 35  1  0  0  0  0
  7  8  1  0  0  0  0
  7 36  1  0  0  0  0
  7 37  1  0  0  0  0
  8  9  1  0  0  0  0
  8 38  1  0  0  0  0
  8 39  1  0  0  0  0
  9 10  1  0  0  0  0
  9 40  1  0  0  0  0
  9 41  1  0  0  0  0
 10 11  1  0  0  0  0
 10 42  1  0  0  0  0
 10 43  1  0  0  0  0
 11 12  1  0  0  0  0
 11 44  1  0  0  0  0
 11 45  1  0  0  0  0
 12 13  2  0  0  0  0
 12 14  1  0  0  0  0
 14 15  2  3  0  0  0
 14 22  1  0  0  0  0
 15 16  1  0  0  0  0
 15 23  1  0  0  0  0
 16 17  1  0  0  0  0
 16 46  1  0  0  0  0
 16 47  1  0  0  0  0
 17 18  1  0  0  0  0
 17 48  1  0  0  0  0
 17 49  1  0  0  0  0
 18 19  1  0  0  0  0
 18 50  1  0  0  0  0
 18 51  1  0  0  0  0
 19 20  1  0  0  0  0
 19 52  1  0  0  0  0
 19 53  1  0  0  0  0
 20 21  1  0  0  0  0
 20 54  1  0  0  0  0
 20 55  1  0  0  0  0
 21 22  1  0  0  0  0
 21 56  1  0  0  0  0
 21 57  1  0  0  0  0
 22 58  1  0  0  0  0
 22 59  1  0  0  0  0
 23 24  2  3  0  0  0
 23 60  1  0  0  0  0
 24 61  1  0  0  0  0
M  END
$$$$
