
 OpenBabel04232216453D

 42 43  0  0  0  0  0  0  0  0999 V2000
    2.0290    1.4748    1.2259 C   0  0  0  0  0  0  0  0  0  0  0  0
    3.2229    1.3059    2.1613 C   0  0  0  0  0  0  0  0  0  0  0  0
    3.6971   -0.0870    2.1582 C   0  0  0  0  0  0  0  0  0  0  0  0
    4.8488   -0.3869    1.5087 C   0  0  0  0  0  0  0  0  0  0  0  0
    5.0434   -0.0750    0.0321 C   0  0  0  0  0  0  0  0  0  0  0  0
    6.0753   -0.6286    2.3284 C   0  0  0  0  0  0  0  0  0  0  0  0
    5.8208   -0.8236    3.8174 C   0  0  0  0  0  0  0  0  0  0  0  0
    7.2984   -0.2323    1.8622 C   0  0  0  0  0  0  0  0  0  0  0  0
    7.9884    0.8066    2.6454 C   0  0  0  0  0  0  0  0  0  0  0  0
    7.1107    1.9925    2.8425 C   0  0  0  0  0  0  0  0  0  0  0  0
    9.2079    0.8247    3.1789 C   0  0  0  0  0  0  0  0  0  0  0  0
    9.4947    1.7009    4.3479 C   0  0  0  0  0  0  0  0  0  0  0  0
   10.7680    1.9514    4.9270 C   0  0  0  0  0  0  0  0  0  0  0  0
   10.1585    2.5462    5.9747 C   0  0  0  0  0  0  0  0  0  0  0  0
    8.8838    2.4221    5.3321 C   0  0  0  0  0  0  0  0  0  0  0  0
    7.4875    2.6284    5.9713 C   0  0  0  0  0  0  0  0  0  0  0  0
    6.3721    3.1755    5.3793 C   0  0  0  0  0  0  0  0  0  0  0  0
    5.0228    2.5426    5.3546 C   0  0  0  0  0  0  0  0  0  0  0  0
    4.0657    2.1903    4.4018 C   0  0  0  0  0  0  0  0  0  0  0  0
    3.7271    2.2961    2.9683 C   0  0  0  0  0  0  0  0  0  0  0  0
    1.1549    1.7925    1.8059 H   0  0  0  0  0  0  0  0  0  0  0  0
    1.7355    0.5256    0.7627 H   0  0  0  0  0  0  0  0  0  0  0  0
    2.2134    2.1927    0.4222 H   0  0  0  0  0  0  0  0  0  0  0  0
    3.4483   -0.5419    3.1140 H   0  0  0  0  0  0  0  0  0  0  0  0
    4.0952   -0.0925   -0.5156 H   0  0  0  0  0  0  0  0  0  0  0  0
    5.6693   -0.8438   -0.4403 H   0  0  0  0  0  0  0  0  0  0  0  0
    5.5130    0.9000   -0.1261 H   0  0  0  0  0  0  0  0  0  0  0  0
    5.0929   -1.6209    3.9976 H   0  0  0  0  0  0  0  0  0  0  0  0
    5.3871    0.0802    4.2616 H   0  0  0  0  0  0  0  0  0  0  0  0
    6.7159   -1.0474    4.3867 H   0  0  0  0  0  0  0  0  0  0  0  0
    7.4743   -0.0762    0.8040 H   0  0  0  0  0  0  0  0  0  0  0  0
    6.3814    2.1737    2.0586 H   0  0  0  0  0  0  0  0  0  0  0  0
    7.6591    2.9311    2.9731 H   0  0  0  0  0  0  0  0  0  0  0  0
    6.5787    1.7222    3.7302 H   0  0  0  0  0  0  0  0  0  0  0  0
    9.9715    0.0879    2.8950 H   0  0  0  0  0  0  0  0  0  0  0  0
   11.7918    1.7073    4.6569 H   0  0  0  0  0  0  0  0  0  0  0  0
   10.5210    2.9939    6.8991 H   0  0  0  0  0  0  0  0  0  0  0  0
    7.3079    1.7099    6.5224 H   0  0  0  0  0  0  0  0  0  0  0  0
    6.2717    4.2331    5.6253 H   0  0  0  0  0  0  0  0  0  0  0  0
    4.7347    2.2623    6.3675 H   0  0  0  0  0  0  0  0  0  0  0  0
    3.2184    1.6894    4.8752 H   0  0  0  0  0  0  0  0  0  0  0  0
    3.3738    3.3373    2.7344 H   0  0  0  0  0  0  0  0  0  0  0  0
  1  2  1  0  0  0  0
  1 21  1  0  0  0  0
  1 22  1  0  0  0  0
  1 23  1  0  0  0  0
  2  3  1  0  0  0  0
  2 20  2  0  0  0  0
  3  4  2  0  0  0  0
  3 24  1  0  0  0  0
  4  5  1  0  0  0  0
  4  6  1  0  0  0  0
  5 25  1  0  0  0  0
  5 26  1  0  0  0  0
  5 27  1  0  0  0  0
  6  7  1  0  0  0  0
  6  8  2  0  0  0  0
  7 28  1  0  0  0  0
  7 29  1  0  0  0  0
  7 30  1  0  0  0  0
  8  9  1  0  0  0  0
  8 31  1  0  0  0  0
  9 10  1  0  0  0  0
  9 11  2  0  0  0  0
 10 32  1  0  0  0  0
 10 33  1  0  0  0  0
 10 34  1  0  0  0  0
 11 12  1  0  0  0  0
 11 35  1  0  0  0  0
 12 13  1  0  0  0  0
 12 15  2  0  0  0  0
 13 14  2  0  0  0  0
 13 36  1  0  0  0  0
 14 15  1  0  0  0  0
 14 37  1  0  0  0  0
 15 16  1  0  0  0  0
 16 17  2  0  0  0  0
 16 38  1  0  0  0  0
 17 18  1  0  0  0  0
 17 39  1  0  0  0  0
 18 19  2  0  0  0  0
 18 40  1  0  0  0  0
 19 20  1  0  0  0  0
 19 41  1  0  0  0  0
 20 42  1  0  0  0  0
M  END
$$$$
