
 OpenBabel04232216483D

 76 77  0  0  0  0  0  0  0  0999 V2000
    2.0572    1.2910    2.7941 C   0  0  0  0  0  0  0  0  0  0  0  0
    0.8750    1.3488    1.8630 C   0  0  0  0  0  0  0  0  0  0  0  0
   -0.3751    1.3704    2.4499 C   0  0  0  0  0  0  0  0  0  0  0  0
   -1.4776    1.2622    1.6351 C   0  0  0  0  0  0  0  0  0  0  0  0
   -1.3818    1.1545    0.2100 C   0  0  0  0  0  0  0  0  0  0  0  0
   -2.7345    0.8165   -0.3889 C   0  0  0  0  0  0  0  0  0  0  0  0
   -3.7419    1.9789   -0.2808 C   0  0  0  0  0  0  0  0  0  0  0  0
   -5.2091    1.5234   -0.2897 C   0  0  0  0  0  0  0  0  0  0  0  0
   -5.6009    0.8288    1.0164 C   0  0  0  0  0  0  0  0  0  0  0  0
   -7.0493    0.3471    1.0344 C   0  0  0  0  0  0  0  0  0  0  0  0
   -7.2985   -0.3811    2.3527 C   0  0  0  0  0  0  0  0  0  0  0  0
   -8.7115   -0.9295    2.4453 C   0  0  0  0  0  0  0  0  0  0  0  0
   -8.8971   -1.6472    3.7775 C   0  0  0  0  0  0  0  0  0  0  0  0
  -10.3105   -2.1941    3.8870 C   0  0  0  0  0  0  0  0  0  0  0  0
  -10.5125   -2.9116    5.2147 C   0  0  0  0  0  0  0  0  0  0  0  0
  -11.9357   -3.4472    5.3043 C   0  0  0  0  0  0  0  0  0  0  0  0
  -12.1673   -4.1720    6.6239 C   0  0  0  0  0  0  0  0  0  0  0  0
  -13.5878   -4.7017    6.7025 C   0  0  0  0  0  0  0  0  0  0  0  0
   -0.1213    1.2448   -0.4685 C   0  0  0  0  0  0  0  0  0  0  0  0
   -0.0155    1.1263   -2.0781 C   0  0  0  0  0  0  0  0  0  0  0  0
    1.1955    1.6626   -2.9743 C   0  0  0  0  0  0  0  0  0  0  0  0
    2.3755    1.9107   -2.3896 C   0  0  0  0  0  0  0  0  0  0  0  0
    2.5800    3.3481   -2.2256 C   0  0  0  0  0  0  0  0  0  0  0  0
    3.7411    3.9774   -2.4996 C   0  0  0  0  0  0  0  0  0  0  0  0
    3.5487    5.2330   -3.2179 C   0  0  0  0  0  0  0  0  0  0  0  0
    3.9528    5.1907   -4.5017 C   0  0  0  0  0  0  0  0  0  0  0  0
    2.9240    5.3409   -5.5428 C   0  0  0  0  0  0  0  0  0  0  0  0
    2.9021    4.3654   -6.4672 C   0  0  0  0  0  0  0  0  0  0  0  0
    2.3835    2.9959   -6.2483 C   0  0  0  0  0  0  0  0  0  0  0  0
    1.6801    2.2342   -5.3558 C   0  0  0  0  0  0  0  0  0  0  0  0
    0.9200    2.4833   -4.1838 O   0  0  0  0  0  0  0  0  0  0  0  0
    0.9881    1.3017    0.4324 C   0  0  0  0  0  0  0  0  0  0  0  0
    1.7485    1.4787    3.8337 H   0  0  0  0  0  0  0  0  0  0  0  0
    2.8074    2.0442    2.5467 H   0  0  0  0  0  0  0  0  0  0  0  0
    2.4993    0.2898    2.7781 H   0  0  0  0  0  0  0  0  0  0  0  0
   -0.5043    1.4129    3.5294 H   0  0  0  0  0  0  0  0  0  0  0  0
   -2.4474    1.2060    2.1295 H   0  0  0  0  0  0  0  0  0  0  0  0
   -3.1009   -0.0369    0.2028 H   0  0  0  0  0  0  0  0  0  0  0  0
   -2.6619    0.4282   -1.4058 H   0  0  0  0  0  0  0  0  0  0  0  0
   -3.5621    2.6674   -1.1122 H   0  0  0  0  0  0  0  0  0  0  0  0
   -3.5866    2.5699    0.6326 H   0  0  0  0  0  0  0  0  0  0  0  0
   -5.3907    0.8628   -1.1438 H   0  0  0  0  0  0  0  0  0  0  0  0
   -5.8476    2.4063   -0.4188 H   0  0  0  0  0  0  0  0  0  0  0  0
   -5.4430    1.5147    1.8585 H   0  0  0  0  0  0  0  0  0  0  0  0
   -4.9569   -0.0386    1.1916 H   0  0  0  0  0  0  0  0  0  0  0  0
   -7.2346   -0.3311    0.1929 H   0  0  0  0  0  0  0  0  0  0  0  0
   -7.7390    1.1935    0.9339 H   0  0  0  0  0  0  0  0  0  0  0  0
   -7.1162    0.3038    3.1904 H   0  0  0  0  0  0  0  0  0  0  0  0
   -6.5843   -1.2082    2.4552 H   0  0  0  0  0  0  0  0  0  0  0  0
   -8.8981   -1.6258    1.6188 H   0  0  0  0  0  0  0  0  0  0  0  0
   -9.4374   -0.1127    2.3562 H   0  0  0  0  0  0  0  0  0  0  0  0
   -8.7003   -0.9544    4.6053 H   0  0  0  0  0  0  0  0  0  0  0  0
   -8.1726   -2.4667    3.8644 H   0  0  0  0  0  0  0  0  0  0  0  0
  -10.5025   -2.8863    3.0581 H   0  0  0  0  0  0  0  0  0  0  0  0
  -11.0306   -1.3717    3.7966 H   0  0  0  0  0  0  0  0  0  0  0  0
  -10.3192   -2.2207    6.0444 H   0  0  0  0  0  0  0  0  0  0  0  0
   -9.7949   -3.7363    5.3051 H   0  0  0  0  0  0  0  0  0  0  0  0
  -12.1230   -4.1312    4.4673 H   0  0  0  0  0  0  0  0  0  0  0  0
  -12.6462   -2.6170    5.2073 H   0  0  0  0  0  0  0  0  0  0  0  0
  -11.9848   -3.4891    7.4617 H   0  0  0  0  0  0  0  0  0  0  0  0
  -11.4608   -5.0043    6.7214 H   0  0  0  0  0  0  0  0  0  0  0  0
  -14.3124   -3.8841    6.6322 H   0  0  0  0  0  0  0  0  0  0  0  0
  -13.7468   -5.2208    7.6516 H   0  0  0  0  0  0  0  0  0  0  0  0
  -13.7860   -5.4060    5.8880 H   0  0  0  0  0  0  0  0  0  0  0  0
   -0.8997    1.6521   -2.4612 H   0  0  0  0  0  0  0  0  0  0  0  0
   -0.1414    0.0599   -2.3063 H   0  0  0  0  0  0  0  0  0  0  0  0
    2.7851    1.2940   -1.6018 H   0  0  0  0  0  0  0  0  0  0  0  0
    1.6681    3.9242   -2.2413 H   0  0  0  0  0  0  0  0  0  0  0  0
    4.6593    3.4195   -2.6319 H   0  0  0  0  0  0  0  0  0  0  0  0
    2.6305    5.7838   -2.9845 H   0  0  0  0  0  0  0  0  0  0  0  0
    4.7792    4.5252   -4.7665 H   0  0  0  0  0  0  0  0  0  0  0  0
    1.9630    5.6832   -5.1671 H   0  0  0  0  0  0  0  0  0  0  0  0
    3.8637    4.2599   -7.0005 H   0  0  0  0  0  0  0  0  0  0  0  0
    2.8055    2.3974   -7.0730 H   0  0  0  0  0  0  0  0  0  0  0  0
    1.6214    1.1807   -5.5802 H   0  0  0  0  0  0  0  0  0  0  0  0
    2.0074    1.2759    0.0844 H   0  0  0  0  0  0  0  0  0  0  0  0
  1  2  1  0  0  0  0
  1 33  1  0  0  0  0
  1 34  1  0  0  0  0
  1 35  1  0  0  0  0
  2  3  1  0  0  0  0
  2 32  2  0  0  0  0
  3  4  2  0  0  0  0
  3 36  1  0  0  0  0
  4  5  1  0  0  0  0
  4 37  1  0  0  0  0
  5  6  1  0  0  0  0
  5 19  2  0  0  0  0
  6  7  1  0  0  0  0
  6 38  1  0  0  0  0
  6 39  1  0  0  0  0
  7  8  1  0  0  0  0
  7 40  1  0  0  0  0
  7 41  1  0  0  0  0
  8  9  1  0  0  0  0
  8 42  1  0  0  0  0
  8 43  1  0  0  0  0
  9 10  1  0  0  0  0
  9 44  1  0  0  0  0
  9 45  1  0  0  0  0
 10 11  1  0  0  0  0
 10 46  1  0  0  0  0
 10 47  1  0  0  0  0
 11 12  1  0  0  0  0
 11 48  1  0  0  0  0
 11 49  1  0  0  0  0
 12 13  1  0  0  0  0
 12 50  1  0  0  0  0
 12 51  1  0  0  0  0
 13 14  1  0  0  0  0
 13 52  1  0  0  0  0
 13 53  1  0  0  0  0
 14 15  1  0  0  0  0
 14 54  1  0  0  0  0
 14 55  1  0  0  0  0
 15 16  1  0  0  0  0
 15 56  1  0  0  0  0
 15 57  1  0  0  0  0
 16 17  1  0  0  0  0
 16 58  1  0  0  0  0
 16 59  1  0  0  0  0
 17 18  1  0  0  0  0
 17 60  1  0  0  0  0
 17 61  1  0  0  0  0
 18 62  1  0  0  0  0
 18 63  1  0  0  0  0
 18 64  1  0  0  0  0
 19 20  1  0  0  0  0
 19 32  1  0  0  0  0
 20 21  1  0  0  0  0
 20 65  1  0  0  0  0
 20 66  1  0  0  0  0
 21 22  2  3  0  0  0
 21 31  1  0  0  0  0
 22 23  1  0  0  0  0
 22 67  1  0  0  0  0
 23 24  2  3  0  0  0
 23 68  1  0  0  0  0
 24 25  1  0  0  0  0
 24 69  1  0  0  0  0
 25 26  2  3  0  0  0
 25 70  1  0  0  0  0
 26 27  1  0  0  0  0
 26 71  1  0  0  0  0
 27 28  2  3  0  0  0
 27 72  1  0  0  0  0
 28 29  1  0  0  0  0
 28 73  1  0  0  0  0
 29 30  2  3  0  0  0
 29 74  1  0  0  0  0
 30 31  1  0  0  0  0
 30 75  1  0  0  0  0
 32 76  1  0  0  0  0
M  END
$$$$
