
 OpenBabel04232216493D

 46 47  0  0  0  0  0  0  0  0999 V2000
    2.6634   -0.0790    0.7323 C   0  0  0  0  0  0  0  0  0  0  0  0
    4.0488    0.0796    0.1250 C   0  0  0  0  0  0  0  0  0  0  0  0
    4.1077    0.5807   -1.1199 C   0  0  0  0  0  0  0  0  0  0  0  0
    5.2703    0.4101   -1.9228 C   0  0  0  0  0  0  0  0  0  0  0  0
    5.8890    1.3476   -2.6484 C   0  0  0  0  0  0  0  0  0  0  0  0
    7.2933    1.2099   -2.9985 C   0  0  0  0  0  0  0  0  0  0  0  0
    7.9415    0.0390   -3.1279 C   0  0  0  0  0  0  0  0  0  0  0  0
    7.9356    2.4121   -3.0651 N   0  0  0  0  0  0  0  0  0  0  0  0
    8.6826    2.7371   -2.0604 C   0  0  0  0  0  0  0  0  0  0  0  0
    9.2414    4.0008   -2.0726 N   0  0  0  0  0  0  0  0  0  0  0  0
   10.3155    4.0789   -2.6981 N   0  0  0  0  0  0  0  0  0  0  0  0
   11.3660    3.2503   -2.4007 C   0  0  0  0  0  0  0  0  0  0  0  0
   11.4794    2.2688   -1.4780 C   0  0  0  0  0  0  0  0  0  0  0  0
   12.9162    1.8084   -1.1984 C   0  0  0  0  0  0  0  0  0  0  0  0
   13.3107    0.3564   -1.4800 C   0  0  0  0  0  0  0  0  0  0  0  0
   13.1917   -0.0642   -2.9352 C   0  0  0  0  0  0  0  0  0  0  0  0
   10.3762    1.7865   -0.6078 C   0  0  0  0  0  0  0  0  0  0  0  0
    9.0335    1.9798   -0.7983 C   0  0  0  0  0  0  0  0  0  0  0  0
    7.8872    1.5252    0.0559 C   0  0  0  0  0  0  0  0  0  0  0  0
    6.9242    2.6179    0.4456 C   0  0  0  0  0  0  0  0  0  0  0  0
    7.6170    0.2246    0.3186 C   0  0  0  0  0  0  0  0  0  0  0  0
    6.4970   -0.4323    1.0030 C   0  0  0  0  0  0  0  0  0  0  0  0
    5.1443   -0.5130    0.9165 C   0  0  0  0  0  0  0  0  0  0  0  0
    1.9126    0.5517    0.2395 H   0  0  0  0  0  0  0  0  0  0  0  0
    2.6434    0.1541    1.7997 H   0  0  0  0  0  0  0  0  0  0  0  0
    2.3328   -1.1204    0.6005 H   0  0  0  0  0  0  0  0  0  0  0  0
    3.2375    1.0394   -1.5928 H   0  0  0  0  0  0  0  0  0  0  0  0
    5.7561   -0.5480   -1.7561 H   0  0  0  0  0  0  0  0  0  0  0  0
    5.4539    2.3449   -2.7498 H   0  0  0  0  0  0  0  0  0  0  0  0
    7.4486   -0.9164   -2.9914 H   0  0  0  0  0  0  0  0  0  0  0  0
    9.0137    0.0130   -3.2828 H   0  0  0  0  0  0  0  0  0  0  0  0
   12.2531    3.5364   -2.9744 H   0  0  0  0  0  0  0  0  0  0  0  0
   13.1479    2.0351   -0.1492 H   0  0  0  0  0  0  0  0  0  0  0  0
   13.6258    2.4334   -1.7668 H   0  0  0  0  0  0  0  0  0  0  0  0
   12.7276   -0.3194   -0.8475 H   0  0  0  0  0  0  0  0  0  0  0  0
   14.3627    0.2335   -1.1853 H   0  0  0  0  0  0  0  0  0  0  0  0
   12.1631    0.0126   -3.2950 H   0  0  0  0  0  0  0  0  0  0  0  0
   13.5108   -1.1075   -3.0445 H   0  0  0  0  0  0  0  0  0  0  0  0
   13.8356    0.5435   -3.5825 H   0  0  0  0  0  0  0  0  0  0  0  0
   10.6992    1.2320    0.2730 H   0  0  0  0  0  0  0  0  0  0  0  0
    7.1580    3.5740   -0.0328 H   0  0  0  0  0  0  0  0  0  0  0  0
    6.9391    2.7783    1.5275 H   0  0  0  0  0  0  0  0  0  0  0  0
    5.9030    2.3738    0.1502 H   0  0  0  0  0  0  0  0  0  0  0  0
    8.3710   -0.5072    0.0170 H   0  0  0  0  0  0  0  0  0  0  0  0
    6.9091   -1.1260    1.7473 H   0  0  0  0  0  0  0  0  0  0  0  0
    4.7209   -1.2330    1.6267 H   0  0  0  0  0  0  0  0  0  0  0  0
  1  2  1  0  0  0  0
  1 24  1  0  0  0  0
  1 25  1  0  0  0  0
  1 26  1  0  0  0  0
  2  3  2  3  0  0  0
  2 23  1  0  0  0  0
  3  4  1  0  0  0  0
  3 27  1  0  0  0  0
  4  5  2  3  0  0  0
  4 28  1  0  0  0  0
  5  6  1  0  0  0  0
  5 29  1  0  0  0  0
  6  7  2  0  0  0  0
  6  8  1  0  0  0  0
  7 30  1  0  0  0  0
  7 31  1  0  0  0  0
  8  9  2  3  0  0  0
  9 10  1  0  0  0  0
  9 18  1  0  0  0  0
 10 11  2  0  0  0  0
 11 12  1  0  0  0  0
 12 13  2  0  0  0  0
 12 32  1  0  0  0  0
 13 14  1  0  0  0  0
 13 17  1  0  0  0  0
 14 15  1  0  0  0  0
 14 33  1  0  0  0  0
 14 34  1  0  0  0  0
 15 16  1  0  0  0  0
 15 35  1  0  0  0  0
 15 36  1  0  0  0  0
 16 37  1  0  0  0  0
 16 38  1  0  0  0  0
 16 39  1  0  0  0  0
 17 18  2  0  0  0  0
 17 40  1  0  0  0  0
 18 19  1  0  0  0  0
 19 20  1  0  0  0  0
 19 21  2  3  0  0  0
 20 41  1  0  0  0  0
 20 42  1  0  0  0  0
 20 43  1  0  0  0  0
 21 22  1  0  0  0  0
 21 44  1  0  0  0  0
 22 23  2  3  0  0  0
 22 45  1  0  0  0  0
 23 46  1  0  0  0  0
M  END
$$$$
