
 OpenBabel04232216563D

236236  0  0  1  0  0  0  0  0999 V2000
    3.0273   -2.5438   -4.3550 C   0  0  0  0  0  0  0  0  0  0  0  0
    3.4830   -2.7251   -2.9792 N   0  0  0  0  0  0  0  0  0  0  0  0
    2.9375   -1.7893   -1.9685 C   0  0  3  0  0  0  0  0  0  0  0  0
    1.4196   -1.9106   -1.7384 C   0  0  0  0  0  0  0  0  0  0  0  0
    0.9814   -3.1021   -0.8930 C   0  0  0  0  0  0  0  0  0  0  0  0
    0.8779   -2.7639    0.5921 C   0  0  0  0  0  0  0  0  0  0  0  0
    2.2106   -2.5023    1.2832 C   0  0  0  0  0  0  0  0  0  0  0  0
    3.0977   -1.4448    0.6364 C   0  0  0  0  0  0  0  0  0  0  0  0
    3.7945   -1.9229   -0.6580 C   0  0  3  0  0  0  0  0  0  0  0  0
    5.1392   -1.1618   -0.8047 C   0  0  0  0  0  0  0  0  0  0  0  0
    4.9419    0.3477   -0.8750 C   0  0  0  0  0  0  0  0  0  0  0  0
    6.2433    1.0988   -1.0236 C   0  0  0  0  0  0  0  0  0  0  0  0
    5.9121    2.5819   -1.1049 C   0  0  0  0  0  0  0  0  0  0  0  0
    7.1889    3.3747   -1.2404 C   0  0  0  0  0  0  0  0  0  0  0  0
    6.8741    4.8527   -1.3183 C   0  0  0  0  0  0  0  0  0  0  0  0
    8.1728    5.6192   -1.4528 C   0  0  0  0  0  0  0  0  0  0  0  0
    7.8859    7.1022   -1.5335 C   0  0  0  0  0  0  0  0  0  0  0  0
    9.1910    7.8598   -1.6683 C   0  0  0  0  0  0  0  0  0  0  0  0
    8.9105    9.3459   -1.7498 C   0  0  0  0  0  0  0  0  0  0  0  0
   10.2151   10.1053   -1.8847 C   0  0  0  0  0  0  0  0  0  0  0  0
    9.9329   11.5923   -1.9681 C   0  0  0  0  0  0  0  0  0  0  0  0
   11.2354   12.3556   -2.1060 C   0  0  0  0  0  0  0  0  0  0  0  0
   10.9521   13.8430   -2.1904 C   0  0  0  0  0  0  0  0  0  0  0  0
   12.2551   14.6060   -2.3260 C   0  0  0  0  0  0  0  0  0  0  0  0
   11.9730   16.0933   -2.4135 C   0  0  0  0  0  0  0  0  0  0  0  0
   13.2762   16.8565   -2.5505 C   0  0  0  0  0  0  0  0  0  0  0  0
   12.9933   18.3438   -2.6408 C   0  0  0  0  0  0  0  0  0  0  0  0
   14.2976   19.1068   -2.7753 C   0  0  0  0  0  0  0  0  0  0  0  0
   14.0130   20.5951   -2.8630 C   0  0  0  0  0  0  0  0  0  0  0  0
   15.3220   21.3549   -3.0115 C   0  0  0  0  0  0  0  0  0  0  0  0
   15.0357   22.8454   -3.0825 C   0  0  0  0  0  0  0  0  0  0  0  0
   16.3409   23.6082   -3.2273 C   0  0  0  0  0  0  0  0  0  0  0  0
   16.0569   25.0971   -3.3120 C   0  0  0  0  0  0  0  0  0  0  0  0
   17.3605   25.8605   -3.4483 C   0  0  0  0  0  0  0  0  0  0  0  0
   17.0784   27.3481   -3.5367 C   0  0  0  0  0  0  0  0  0  0  0  0
   18.3812   28.1116   -3.6741 C   0  0  0  0  0  0  0  0  0  0  0  0
   18.0992   29.5991   -3.7641 C   0  0  0  0  0  0  0  0  0  0  0  0
   19.4024   30.3627   -3.9012 C   0  0  0  0  0  0  0  0  0  0  0  0
   19.1202   31.8503   -3.9908 C   0  0  0  0  0  0  0  0  0  0  0  0
   20.4234   32.6139   -4.1280 C   0  0  0  0  0  0  0  0  0  0  0  0
   20.1411   34.1014   -4.2175 C   0  0  0  0  0  0  0  0  0  0  0  0
   21.4444   34.8650   -4.3548 C   0  0  0  0  0  0  0  0  0  0  0  0
   21.1622   36.3526   -4.4423 C   0  0  0  0  0  0  0  0  0  0  0  0
   22.4654   37.1162   -4.5795 C   0  0  0  0  0  0  0  0  0  0  0  0
   22.1832   38.6038   -4.6670 C   0  0  0  0  0  0  0  0  0  0  0  0
   23.4866   39.3675   -4.8024 C   0  0  0  0  0  0  0  0  0  0  0  0
   23.2043   40.8550   -4.8918 C   0  0  0  0  0  0  0  0  0  0  0  0
   24.5075   41.6185   -5.0290 C   0  0  0  0  0  0  0  0  0  0  0  0
   24.2254   43.1061   -5.1166 C   0  0  0  0  0  0  0  0  0  0  0  0
   25.5287   43.8699   -5.2518 C   0  0  0  0  0  0  0  0  0  0  0  0
   25.2464   45.3573   -5.3413 C   0  0  0  0  0  0  0  0  0  0  0  0
   26.5497   46.1211   -5.4765 C   0  0  0  0  0  0  0  0  0  0  0  0
   26.2675   47.6085   -5.5661 C   0  0  0  0  0  0  0  0  0  0  0  0
   27.5707   48.3721   -5.7032 C   0  0  0  0  0  0  0  0  0  0  0  0
   27.2883   49.8595   -5.7929 C   0  0  0  0  0  0  0  0  0  0  0  0
   28.5916   50.6233   -5.9281 C   0  0  0  0  0  0  0  0  0  0  0  0
   28.3093   52.1107   -6.0196 C   0  0  0  0  0  0  0  0  0  0  0  0
   29.6126   52.8740   -6.1568 C   0  0  0  0  0  0  0  0  0  0  0  0
   29.3316   54.3616   -6.2465 C   0  0  0  0  0  0  0  0  0  0  0  0
   30.6357   55.1239   -6.3836 C   0  0  0  0  0  0  0  0  0  0  0  0
   30.3547   56.6115   -6.4732 C   0  0  0  0  0  0  0  0  0  0  0  0
   31.6577   57.3753   -6.6104 C   0  0  0  0  0  0  0  0  0  0  0  0
   31.3742   58.8626   -6.7000 C   0  0  0  0  0  0  0  0  0  0  0  0
   32.6766   59.6272   -6.8372 C   0  0  0  0  0  0  0  0  0  0  0  0
   32.3936   61.1146   -6.9268 C   0  0  0  0  0  0  0  0  0  0  0  0
   33.6966   61.8788   -7.0641 C   0  0  0  0  0  0  0  0  0  0  0  0
   33.4146   63.3664   -7.1536 C   0  0  0  0  0  0  0  0  0  0  0  0
   34.7178   64.1304   -7.2929 C   0  0  0  0  0  0  0  0  0  0  0  0
   34.4360   65.6186   -7.3806 C   0  0  0  0  0  0  0  0  0  0  0  0
   35.7385   66.3841   -7.5210 C   0  0  0  0  0  0  0  0  0  0  0  0
   35.4573   67.8728   -7.6074 C   0  0  0  0  0  0  0  0  0  0  0  0
   36.7608   68.6373   -7.7508 C   0  0  0  0  0  0  0  0  0  0  0  0
   36.4820   70.1271   -7.8367 C   0  0  0  0  0  0  0  0  0  0  0  0
   37.7859   70.8927   -7.9782 C   0  0  0  0  0  0  0  0  0  0  0  0
   37.5088   72.3837   -8.0623 C   0  0  0  0  0  0  0  0  0  0  0  0
   38.8144   73.1530   -8.2040 C   0  0  0  0  0  0  0  0  0  0  0  0
   38.5384   74.6470   -8.2885 C   0  0  0  0  0  0  0  0  0  0  0  0
   39.8375   75.4292   -8.4307 C   0  0  0  0  0  0  0  0  0  0  0  0
   39.5586   76.9171   -8.5145 C   0  0  0  0  0  0  0  0  0  0  0  0
    3.5154   -3.3129   -4.9696 H   0  0  0  0  0  0  0  0  0  0  0  0
    3.3102   -1.5749   -4.7889 H   0  0  0  0  0  0  0  0  0  0  0  0
    1.9527   -2.7023   -4.4743 H   0  0  0  0  0  0  0  0  0  0  0  0
    4.5049   -2.6267   -2.9921 H   0  0  0  0  0  0  0  0  0  0  0  0
    3.0647   -0.7781   -2.3571 H   0  0  0  0  0  0  0  0  0  0  0  0
    0.9041   -1.9418   -2.7015 H   0  0  0  0  0  0  0  0  0  0  0  0
    1.0583   -0.9799   -1.2749 H   0  0  0  0  0  0  0  0  0  0  0  0
    1.6412   -3.9634   -1.0295 H   0  0  0  0  0  0  0  0  0  0  0  0
   -0.0171   -3.4085   -1.2295 H   0  0  0  0  0  0  0  0  0  0  0  0
    0.3960   -3.6055    1.1068 H   0  0  0  0  0  0  0  0  0  0  0  0
    0.2155   -1.8995    0.7378 H   0  0  0  0  0  0  0  0  0  0  0  0
    2.7696   -3.4418    1.3686 H   0  0  0  0  0  0  0  0  0  0  0  0
    1.9995   -2.1823    2.3112 H   0  0  0  0  0  0  0  0  0  0  0  0
    3.8704   -1.2006    1.3756 H   0  0  0  0  0  0  0  0  0  0  0  0
    2.5417   -0.5173    0.4604 H   0  0  0  0  0  0  0  0  0  0  0  0
    4.0560   -2.9843   -0.5241 H   0  0  0  0  0  0  0  0  0  0  0  0
    5.6784   -1.5020   -1.6940 H   0  0  0  0  0  0  0  0  0  0  0  0
    5.7850   -1.3943    0.0521 H   0  0  0  0  0  0  0  0  0  0  0  0
    4.4660    0.7099    0.0421 H   0  0  0  0  0  0  0  0  0  0  0  0
    4.2897    0.6175   -1.7089 H   0  0  0  0  0  0  0  0  0  0  0  0
    6.7873    0.7770   -1.9189 H   0  0  0  0  0  0  0  0  0  0  0  0
    6.8814    0.9088   -0.1540 H   0  0  0  0  0  0  0  0  0  0  0  0
    5.3688    2.8994   -0.2034 H   0  0  0  0  0  0  0  0  0  0  0  0
    5.2513    2.7787   -1.9595 H   0  0  0  0  0  0  0  0  0  0  0  0
    7.7293    3.0572   -2.1408 H   0  0  0  0  0  0  0  0  0  0  0  0
    7.8400    3.1754   -0.3810 H   0  0  0  0  0  0  0  0  0  0  0  0
    6.3360    5.1753   -0.4179 H   0  0  0  0  0  0  0  0  0  0  0  0
    6.2228    5.0573   -2.1767 H   0  0  0  0  0  0  0  0  0  0  0  0
    8.7081    5.2901   -2.3522 H   0  0  0  0  0  0  0  0  0  0  0  0
    8.8221    5.4076   -0.5940 H   0  0  0  0  0  0  0  0  0  0  0  0
    7.3507    7.4303   -0.6340 H   0  0  0  0  0  0  0  0  0  0  0  0
    7.2379    7.3123   -2.3932 H   0  0  0  0  0  0  0  0  0  0  0  0
    9.7250    7.5281   -2.5674 H   0  0  0  0  0  0  0  0  0  0  0  0
    9.8386    7.6459   -0.8090 H   0  0  0  0  0  0  0  0  0  0  0  0
    8.3755    9.6754   -0.8506 H   0  0  0  0  0  0  0  0  0  0  0  0
    8.2625    9.5574   -2.6093 H   0  0  0  0  0  0  0  0  0  0  0  0
   10.7501    9.7736   -2.7831 H   0  0  0  0  0  0  0  0  0  0  0  0
   10.8624    9.8935   -1.0246 H   0  0  0  0  0  0  0  0  0  0  0  0
    9.3984   11.9221   -1.0686 H   0  0  0  0  0  0  0  0  0  0  0  0
    9.2834   11.8018   -2.8269 H   0  0  0  0  0  0  0  0  0  0  0  0
   11.7698   12.0246   -3.0046 H   0  0  0  0  0  0  0  0  0  0  0  0
   11.8844   12.1463   -1.2463 H   0  0  0  0  0  0  0  0  0  0  0  0
   10.4154   14.1739   -1.2928 H   0  0  0  0  0  0  0  0  0  0  0  0
   10.3045   14.0516   -3.0513 H   0  0  0  0  0  0  0  0  0  0  0  0
   12.7921   14.2736   -3.2228 H   0  0  0  0  0  0  0  0  0  0  0  0
   12.9018   14.3979   -1.4646 H   0  0  0  0  0  0  0  0  0  0  0  0
   11.4370   16.4259   -1.5159 H   0  0  0  0  0  0  0  0  0  0  0  0
   11.3252   16.3012   -3.2741 H   0  0  0  0  0  0  0  0  0  0  0  0
   13.8129   16.5224   -3.4472 H   0  0  0  0  0  0  0  0  0  0  0  0
   13.9232   16.6496   -1.6891 H   0  0  0  0  0  0  0  0  0  0  0  0
   12.4554   18.6771   -1.7447 H   0  0  0  0  0  0  0  0  0  0  0  0
   12.3481   18.5501   -3.5029 H   0  0  0  0  0  0  0  0  0  0  0  0
   14.8351   18.7735   -3.6714 H   0  0  0  0  0  0  0  0  0  0  0  0
   14.9426   18.9002   -1.9130 H   0  0  0  0  0  0  0  0  0  0  0  0
   13.4802   20.9283   -1.9669 H   0  0  0  0  0  0  0  0  0  0  0  0
   13.3669   20.8017   -3.7253 H   0  0  0  0  0  0  0  0  0  0  0  0
   15.8517   21.0266   -3.9038 H   0  0  0  0  0  0  0  0  0  0  0  0
   15.9690   21.1475   -2.1453 H   0  0  0  0  0  0  0  0  0  0  0  0
   14.5053   23.1742   -2.1881 H   0  0  0  0  0  0  0  0  0  0  0  0
   14.3861   23.0553   -3.9448 H   0  0  0  0  0  0  0  0  0  0  0  0
   16.8736   23.2777   -4.1233 H   0  0  0  0  0  0  0  0  0  0  0  0
   16.9891   23.4007   -2.3670 H   0  0  0  0  0  0  0  0  0  0  0  0
   15.5206   25.4284   -2.4150 H   0  0  0  0  0  0  0  0  0  0  0  0
   15.4100   25.3051   -4.1732 H   0  0  0  0  0  0  0  0  0  0  0  0
   17.8977   25.5272   -4.3443 H   0  0  0  0  0  0  0  0  0  0  0  0
   18.0067   25.6527   -2.5862 H   0  0  0  0  0  0  0  0  0  0  0  0
   16.5419   27.6813   -2.6399 H   0  0  0  0  0  0  0  0  0  0  0  0
   16.4309   27.5550   -4.3981 H   0  0  0  0  0  0  0  0  0  0  0  0
   18.9183   27.7779   -4.5708 H   0  0  0  0  0  0  0  0  0  0  0  0
   19.0284   27.9051   -2.8127 H   0  0  0  0  0  0  0  0  0  0  0  0
   17.5626   29.9331   -2.8675 H   0  0  0  0  0  0  0  0  0  0  0  0
   17.4522   29.8059   -4.6254 H   0  0  0  0  0  0  0  0  0  0  0  0
   19.9390   30.0292   -4.7979 H   0  0  0  0  0  0  0  0  0  0  0  0
   20.0497   30.1561   -3.0399 H   0  0  0  0  0  0  0  0  0  0  0  0
   18.5837   32.1840   -3.0940 H   0  0  0  0  0  0  0  0  0  0  0  0
   18.4730   32.0571   -4.8521 H   0  0  0  0  0  0  0  0  0  0  0  0
   20.9599   32.2803   -5.0248 H   0  0  0  0  0  0  0  0  0  0  0  0
   21.0707   32.4071   -3.2667 H   0  0  0  0  0  0  0  0  0  0  0  0
   19.6047   34.4350   -3.3207 H   0  0  0  0  0  0  0  0  0  0  0  0
   19.4939   34.3082   -5.0788 H   0  0  0  0  0  0  0  0  0  0  0  0
   21.9802   34.5323   -5.2523 H   0  0  0  0  0  0  0  0  0  0  0  0
   22.0922   34.6571   -3.4942 H   0  0  0  0  0  0  0  0  0  0  0  0
   20.6264   36.6852   -3.5448 H   0  0  0  0  0  0  0  0  0  0  0  0
   20.5144   36.5605   -5.3028 H   0  0  0  0  0  0  0  0  0  0  0  0
   23.0013   36.7836   -5.4771 H   0  0  0  0  0  0  0  0  0  0  0  0
   23.1132   36.9082   -3.7190 H   0  0  0  0  0  0  0  0  0  0  0  0
   21.6462   38.9362   -3.7701 H   0  0  0  0  0  0  0  0  0  0  0  0
   21.5366   38.8118   -5.5284 H   0  0  0  0  0  0  0  0  0  0  0  0
   24.0243   39.0342   -5.6984 H   0  0  0  0  0  0  0  0  0  0  0  0
   24.1327   39.1605   -3.9403 H   0  0  0  0  0  0  0  0  0  0  0  0
   22.6678   41.1885   -3.9950 H   0  0  0  0  0  0  0  0  0  0  0  0
   22.5571   41.0619   -5.7531 H   0  0  0  0  0  0  0  0  0  0  0  0
   25.0434   41.2859   -5.9266 H   0  0  0  0  0  0  0  0  0  0  0  0
   25.1553   41.4107   -4.1685 H   0  0  0  0  0  0  0  0  0  0  0  0
   23.6883   43.4386   -4.2197 H   0  0  0  0  0  0  0  0  0  0  0  0
   23.5787   43.3142   -5.9780 H   0  0  0  0  0  0  0  0  0  0  0  0
   26.0665   43.5365   -6.1479 H   0  0  0  0  0  0  0  0  0  0  0  0
   26.1747   43.6629   -4.3897 H   0  0  0  0  0  0  0  0  0  0  0  0
   24.7086   45.6907   -4.4452 H   0  0  0  0  0  0  0  0  0  0  0  0
   24.6004   45.5643   -6.2035 H   0  0  0  0  0  0  0  0  0  0  0  0
   27.0875   45.7876   -6.3726 H   0  0  0  0  0  0  0  0  0  0  0  0
   27.1958   45.9141   -4.6144 H   0  0  0  0  0  0  0  0  0  0  0  0
   25.7309   47.9421   -4.6694 H   0  0  0  0  0  0  0  0  0  0  0  0
   25.6203   47.8153   -6.4274 H   0  0  0  0  0  0  0  0  0  0  0  0
   28.1072   48.0385   -6.6000 H   0  0  0  0  0  0  0  0  0  0  0  0
   28.2178   48.1653   -4.8420 H   0  0  0  0  0  0  0  0  0  0  0  0
   26.7505   50.1930   -4.8968 H   0  0  0  0  0  0  0  0  0  0  0  0
   26.6423   50.0663   -6.6550 H   0  0  0  0  0  0  0  0  0  0  0  0
   29.1301   50.2889   -6.8234 H   0  0  0  0  0  0  0  0  0  0  0  0
   29.2371   50.4175   -5.0653 H   0  0  0  0  0  0  0  0  0  0  0  0
   27.7720   52.4454   -5.1237 H   0  0  0  0  0  0  0  0  0  0  0  0
   27.6627   52.3164   -6.8817 H   0  0  0  0  0  0  0  0  0  0  0  0
   30.1490   52.5400   -7.0535 H   0  0  0  0  0  0  0  0  0  0  0  0
   30.2597   52.6671   -5.2955 H   0  0  0  0  0  0  0  0  0  0  0  0
   28.7953   54.6959   -5.3498 H   0  0  0  0  0  0  0  0  0  0  0  0
   28.6845   54.5690   -7.1078 H   0  0  0  0  0  0  0  0  0  0  0  0
   31.1721   54.7894   -7.2801 H   0  0  0  0  0  0  0  0  0  0  0  0
   31.2824   54.9165   -5.5221 H   0  0  0  0  0  0  0  0  0  0  0  0
   29.8188   56.9453   -5.5761 H   0  0  0  0  0  0  0  0  0  0  0  0
   29.7072   56.8187   -7.3341 H   0  0  0  0  0  0  0  0  0  0  0  0
   32.1948   57.0418   -7.5069 H   0  0  0  0  0  0  0  0  0  0  0  0
   32.3047   57.1691   -5.7488 H   0  0  0  0  0  0  0  0  0  0  0  0
   30.8374   59.1958   -5.8032 H   0  0  0  0  0  0  0  0  0  0  0  0
   30.7266   59.0689   -7.5612 H   0  0  0  0  0  0  0  0  0  0  0  0
   33.2133   59.2938   -7.7340 H   0  0  0  0  0  0  0  0  0  0  0  0
   33.3240   59.4207   -5.9760 H   0  0  0  0  0  0  0  0  0  0  0  0
   31.8569   61.4480   -6.0300 H   0  0  0  0  0  0  0  0  0  0  0  0
   31.7462   61.3210   -7.7880 H   0  0  0  0  0  0  0  0  0  0  0  0
   34.2330   61.5448   -7.9609 H   0  0  0  0  0  0  0  0  0  0  0  0
   34.3440   61.6718   -6.2029 H   0  0  0  0  0  0  0  0  0  0  0  0
   32.8792   63.6999   -6.2560 H   0  0  0  0  0  0  0  0  0  0  0  0
   32.7660   63.5728   -8.0138 H   0  0  0  0  0  0  0  0  0  0  0  0
   35.2522   63.7970   -8.1910 H   0  0  0  0  0  0  0  0  0  0  0  0
   35.3667   63.9223   -6.4332 H   0  0  0  0  0  0  0  0  0  0  0  0
   33.9020   65.9508   -6.4818 H   0  0  0  0  0  0  0  0  0  0  0  0
   33.7855   65.8254   -8.2393 H   0  0  0  0  0  0  0  0  0  0  0  0
   36.2713   66.0528   -8.4210 H   0  0  0  0  0  0  0  0  0  0  0  0
   36.3890   66.1757   -6.6630 H   0  0  0  0  0  0  0  0  0  0  0  0
   34.9254   68.2050   -6.7073 H   0  0  0  0  0  0  0  0  0  0  0  0
   34.8056   68.0803   -8.4651 H   0  0  0  0  0  0  0  0  0  0  0  0
   37.2919   68.3037   -8.6508 H   0  0  0  0  0  0  0  0  0  0  0  0
   37.4124   68.4278   -6.8934 H   0  0  0  0  0  0  0  0  0  0  0  0
   35.9491   70.4586   -6.9370 H   0  0  0  0  0  0  0  0  0  0  0  0
   35.8308   70.3352   -8.6947 H   0  0  0  0  0  0  0  0  0  0  0  0
   38.3171   70.5598   -8.8784 H   0  0  0  0  0  0  0  0  0  0  0  0
   38.4365   70.6813   -7.1207 H   0  0  0  0  0  0  0  0  0  0  0  0
   36.9768   72.7142   -7.1621 H   0  0  0  0  0  0  0  0  0  0  0  0
   36.8574   72.5928   -8.9194 H   0  0  0  0  0  0  0  0  0  0  0  0
   39.3450   72.8190   -9.1041 H   0  0  0  0  0  0  0  0  0  0  0  0
   39.4643   72.9404   -7.3464 H   0  0  0  0  0  0  0  0  0  0  0  0
   38.0036   74.9736   -7.3880 H   0  0  0  0  0  0  0  0  0  0  0  0
   37.8843   74.8523   -9.1450 H   0  0  0  0  0  0  0  0  0  0  0  0
   40.3716   75.1044   -9.3314 H   0  0  0  0  0  0  0  0  0  0  0  0
   40.4909   75.2257   -7.5741 H   0  0  0  0  0  0  0  0  0  0  0  0
   38.9269   77.1465   -9.3789 H   0  0  0  0  0  0  0  0  0  0  0  0
   40.4947   77.4735   -8.6165 H   0  0  0  0  0  0  0  0  0  0  0  0
   39.0468   77.2685   -7.6126 H   0  0  0  0  0  0  0  0  0  0  0  0
  1  2  1  0  0  0  0
  1 80  1  0  0  0  0
  1 81  1  0  0  0  0
  1 82  1  0  0  0  0
  2  3  1  0  0  0  0
  2 83  1  0  0  0  0
  3  4  1  0  0  0  0
  3  9  1  0  0  0  0
  3 84  1  0  0  0  0
  4  5  1  0  0  0  0
  4 85  1  0  0  0  0
  4 86  1  0  0  0  0
  5  6  1  0  0  0  0
  5 87  1  0  0  0  0
  5 88  1  0  0  0  0
  6  7  1  0  0  0  0
  6 89  1  0  0  0  0
  6 90  1  0  0  0  0
  7  8  1  0  0  0  0
  7 91  1  0  0  0  0
  7 92  1  0  0  0  0
  8  9  1  0  0  0  0
  8 93  1  0  0  0  0
  8 94  1  0  0  0  0
  9 10  1  0  0  0  0
  9 95  1  0  0  0  0
 10 11  1  0  0  0  0
 10 96  1  0  0  0  0
 10 97  1  0  0  0  0
 11 12  1  0  0  0  0
 11 98  1  0  0  0  0
 11 99  1  0  0  0  0
 12 13  1  0  0  0  0
 12100  1  0  0  0  0
 12101  1  0  0  0  0
 13 14  1  0  0  0  0
 13102  1  0  0  0  0
 13103  1  0  0  0  0
 14 15  1  0  0  0  0
 14104  1  0  0  0  0
 14105  1  0  0  0  0
 15 16  1  0  0  0  0
 15106  1  0  0  0  0
 15107  1  0  0  0  0
 16 17  1  0  0  0  0
 16108  1  0  0  0  0
 16109  1  0  0  0  0
 17 18  1  0  0  0  0
 17110  1  0  0  0  0
 17111  1  0  0  0  0
 18 19  1  0  0  0  0
 18112  1  0  0  0  0
 18113  1  0  0  0  0
 19 20  1  0  0  0  0
 19114  1  0  0  0  0
 19115  1  0  0  0  0
 20 21  1  0  0  0  0
 20116  1  0  0  0  0
 20117  1  0  0  0  0
 21 22  1  0  0  0  0
 21118  1  0  0  0  0
 21119  1  0  0  0  0
 22 23  1  0  0  0  0
 22120  1  0  0  0  0
 22121  1  0  0  0  0
 23 24  1  0  0  0  0
 23122  1  0  0  0  0
 23123  1  0  0  0  0
 24 25  1  0  0  0  0
 24124  1  0  0  0  0
 24125  1  0  0  0  0
 25 26  1  0  0  0  0
 25126  1  0  0  0  0
 25127  1  0  0  0  0
 26 27  1  0  0  0  0
 26128  1  0  0  0  0
 26129  1  0  0  0  0
 27 28  1  0  0  0  0
 27130  1  0  0  0  0
 27131  1  0  0  0  0
 28 29  1  0  0  0  0
 28132  1  0  0  0  0
 28133  1  0  0  0  0
 29 30  1  0  0  0  0
 29134  1  0  0  0  0
 29135  1  0  0  0  0
 30 31  1  0  0  0  0
 30136  1  0  0  0  0
 30137  1  0  0  0  0
 31 32  1  0  0  0  0
 31138  1  0  0  0  0
 31139  1  0  0  0  0
 32 33  1  0  0  0  0
 32140  1  0  0  0  0
 32141  1  0  0  0  0
 33 34  1  0  0  0  0
 33142  1  0  0  0  0
 33143  1  0  0  0  0
 34 35  1  0  0  0  0
 34144  1  0  0  0  0
 34145  1  0  0  0  0
 35 36  1  0  0  0  0
 35146  1  0  0  0  0
 35147  1  0  0  0  0
 36 37  1  0  0  0  0
 36148  1  0  0  0  0
 36149  1  0  0  0  0
 37 38  1  0  0  0  0
 37150  1  0  0  0  0
 37151  1  0  0  0  0
 38 39  1  0  0  0  0
 38152  1  0  0  0  0
 38153  1  0  0  0  0
 39 40  1  0  0  0  0
 39154  1  0  0  0  0
 39155  1  0  0  0  0
 40 41  1  0  0  0  0
 40156  1  0  0  0  0
 40157  1  0  0  0  0
 41 42  1  0  0  0  0
 41158  1  0  0  0  0
 41159  1  0  0  0  0
 42 43  1  0  0  0  0
 42160  1  0  0  0  0
 42161  1  0  0  0  0
 43 44  1  0  0  0  0
 43162  1  0  0  0  0
 43163  1  0  0  0  0
 44 45  1  0  0  0  0
 44164  1  0  0  0  0
 44165  1  0  0  0  0
 45 46  1  0  0  0  0
 45166  1  0  0  0  0
 45167  1  0  0  0  0
 46 47  1  0  0  0  0
 46168  1  0  0  0  0
 46169  1  0  0  0  0
 47 48  1  0  0  0  0
 47170  1  0  0  0  0
 47171  1  0  0  0  0
 48 49  1  0  0  0  0
 48172  1  0  0  0  0
 48173  1  0  0  0  0
 49 50  1  0  0  0  0
 49174  1  0  0  0  0
 49175  1  0  0  0  0
 50 51  1  0  0  0  0
 50176  1  0  0  0  0
 50177  1  0  0  0  0
 51 52  1  0  0  0  0
 51178  1  0  0  0  0
 51179  1  0  0  0  0
 52 53  1  0  0  0  0
 52180  1  0  0  0  0
 52181  1  0  0  0  0
 53 54  1  0  0  0  0
 53182  1  0  0  0  0
 53183  1  0  0  0  0
 54 55  1  0  0  0  0
 54184  1  0  0  0  0
 54185  1  0  0  0  0
 55 56  1  0  0  0  0
 55186  1  0  0  0  0
 55187  1  0  0  0  0
 56 57  1  0  0  0  0
 56188  1  0  0  0  0
 56189  1  0  0  0  0
 57 58  1  0  0  0  0
 57190  1  0  0  0  0
 57191  1  0  0  0  0
 58 59  1  0  0  0  0
 58192  1  0  0  0  0
 58193  1  0  0  0  0
 59 60  1  0  0  0  0
 59194  1  0  0  0  0
 59195  1  0  0  0  0
 60 61  1  0  0  0  0
 60196  1  0  0  0  0
 60197  1  0  0  0  0
 61 62  1  0  0  0  0
 61198  1  0  0  0  0
 61199  1  0  0  0  0
 62 63  1  0  0  0  0
 62200  1  0  0  0  0
 62201  1  0  0  0  0
 63 64  1  0  0  0  0
 63202  1  0  0  0  0
 63203  1  0  0  0  0
 64 65  1  0  0  0  0
 64204  1  0  0  0  0
 64205  1  0  0  0  0
 65 66  1  0  0  0  0
 65206  1  0  0  0  0
 65207  1  0  0  0  0
 66 67  1  0  0  0  0
 66208  1  0  0  0  0
 66209  1  0  0  0  0
 67 68  1  0  0  0  0
 67210  1  0  0  0  0
 67211  1  0  0  0  0
 68 69  1  0  0  0  0
 68212  1  0  0  0  0
 68213  1  0  0  0  0
 69 70  1  0  0  0  0
 69214  1  0  0  0  0
 69215  1  0  0  0  0
 70 71  1  0  0  0  0
 70216  1  0  0  0  0
 70217  1  0  0  0  0
 71 72  1  0  0  0  0
 71218  1  0  0  0  0
 71219  1  0  0  0  0
 72 73  1  0  0  0  0
 72220  1  0  0  0  0
 72221  1  0  0  0  0
 73 74  1  0  0  0  0
 73222  1  0  0  0  0
 73223  1  0  0  0  0
 74 75  1  0  0  0  0
 74224  1  0  0  0  0
 74225  1  0  0  0  0
 75 76  1  0  0  0  0
 75226  1  0  0  0  0
 75227  1  0  0  0  0
 76 77  1  0  0  0  0
 76228  1  0  0  0  0
 76229  1  0  0  0  0
 77 78  1  0  0  0  0
 77230  1  0  0  0  0
 77231  1  0  0  0  0
 78 79  1  0  0  0  0
 78232  1  0  0  0  0
 78233  1  0  0  0  0
 79234  1  0  0  0  0
 79235  1  0  0  0  0
 79236  1  0  0  0  0
M  END
$$$$
