
 OpenBabel04232217013D

241240  0  0  0  0  0  0  0  0999 V2000
    0.9336   -0.0097    0.1162 O   0  0  0  0  0  0  0  0  0  0  0  0
    2.3498    0.0042    0.1269 C   0  0  0  0  0  0  0  0  0  0  0  0
    2.8617   -1.0310   -0.8561 C   0  0  0  0  0  0  0  0  0  0  0  0
    4.3814   -1.0420   -0.8664 C   0  0  0  0  0  0  0  0  0  0  0  0
    4.8954   -2.0786   -1.8507 C   0  0  0  0  0  0  0  0  0  0  0  0
    6.4132   -2.0853   -1.8570 C   0  0  0  0  0  0  0  0  0  0  0  0
    6.9303   -3.1227   -2.8393 C   0  0  0  0  0  0  0  0  0  0  0  0
    8.4443   -3.1168   -2.8364 C   0  0  0  0  0  0  0  0  0  0  0  0
    8.9170   -4.0908   -3.7584 O   0  0  0  0  0  0  0  0  0  0  0  0
   10.3390   -4.0897   -3.7575 C   0  0  0  0  0  0  0  0  0  0  0  0
   10.8372   -5.1289   -4.7386 C   0  0  0  0  0  0  0  0  0  0  0  0
   12.3558   -5.1350   -4.7471 C   0  0  0  0  0  0  0  0  0  0  0  0
   12.8688   -6.1740   -5.7253 C   0  0  0  0  0  0  0  0  0  0  0  0
   14.3862   -6.1776   -5.7287 C   0  0  0  0  0  0  0  0  0  0  0  0
   14.8970   -7.2177   -6.7079 C   0  0  0  0  0  0  0  0  0  0  0  0
   16.4140   -7.2197   -6.7125 C   0  0  0  0  0  0  0  0  0  0  0  0
   16.9236   -8.2587   -7.6935 C   0  0  0  0  0  0  0  0  0  0  0  0
   18.4409   -8.2617   -7.6963 C   0  0  0  0  0  0  0  0  0  0  0  0
   18.9504   -9.3023   -8.6760 C   0  0  0  0  0  0  0  0  0  0  0  0
   20.4677   -9.3038   -8.6801 C   0  0  0  0  0  0  0  0  0  0  0  0
   20.9771  -10.3457   -9.6584 C   0  0  0  0  0  0  0  0  0  0  0  0
   22.4944  -10.3486   -9.6610 C   0  0  0  0  0  0  0  0  0  0  0  0
   23.0038  -11.3919  -10.6377 C   0  0  0  0  0  0  0  0  0  0  0  0
   24.5210  -11.3961  -10.6389 C   0  0  0  0  0  0  0  0  0  0  0  0
   25.0304  -12.4395  -11.6156 C   0  0  0  0  0  0  0  0  0  0  0  0
   26.5477  -12.4424  -11.6183 C   0  0  0  0  0  0  0  0  0  0  0  0
   27.0571  -13.4857  -12.5950 C   0  0  0  0  0  0  0  0  0  0  0  0
   28.5744  -13.4885  -12.5977 C   0  0  0  0  0  0  0  0  0  0  0  0
   29.0838  -14.5319  -13.5744 C   0  0  0  0  0  0  0  0  0  0  0  0
   30.6010  -14.5347  -13.5770 C   0  0  0  0  0  0  0  0  0  0  0  0
   31.1104  -15.5781  -14.5538 C   0  0  0  0  0  0  0  0  0  0  0  0
   32.6277  -15.5809  -14.5564 C   0  0  0  0  0  0  0  0  0  0  0  0
   33.1371  -16.6243  -15.5332 C   0  0  0  0  0  0  0  0  0  0  0  0
   34.6543  -16.6285  -15.5343 C   0  0  0  0  0  0  0  0  0  0  0  0
   35.1637  -17.6719  -16.5111 C   0  0  0  0  0  0  0  0  0  0  0  0
   36.6810  -17.6747  -16.5137 C   0  0  0  0  0  0  0  0  0  0  0  0
   37.1904  -18.7194  -17.4890 C   0  0  0  0  0  0  0  0  0  0  0  0
   38.7076  -18.7209  -17.4931 C   0  0  0  0  0  0  0  0  0  0  0  0
   39.2171  -19.7670  -18.4669 C   0  0  0  0  0  0  0  0  0  0  0  0
   40.7343  -19.7698  -18.4695 C   0  0  0  0  0  0  0  0  0  0  0  0
   41.2437  -20.8146  -19.4448 C   0  0  0  0  0  0  0  0  0  0  0  0
   42.7610  -20.8174  -19.4474 C   0  0  0  0  0  0  0  0  0  0  0  0
   43.2704  -21.8621  -20.4227 C   0  0  0  0  0  0  0  0  0  0  0  0
   44.7876  -21.8650  -20.4253 C   0  0  0  0  0  0  0  0  0  0  0  0
   45.2970  -22.9097  -21.4006 C   0  0  0  0  0  0  0  0  0  0  0  0
   46.8143  -22.9125  -21.4032 C   0  0  0  0  0  0  0  0  0  0  0  0
   47.3237  -23.9573  -22.3785 C   0  0  0  0  0  0  0  0  0  0  0  0
   48.8410  -23.9601  -22.3811 C   0  0  0  0  0  0  0  0  0  0  0  0
   49.3504  -25.0048  -23.3564 C   0  0  0  0  0  0  0  0  0  0  0  0
   50.8676  -25.0063  -23.3605 C   0  0  0  0  0  0  0  0  0  0  0  0
   51.3770  -26.0510  -24.3358 C   0  0  0  0  0  0  0  0  0  0  0  0
   52.8943  -26.0539  -24.3384 C   0  0  0  0  0  0  0  0  0  0  0  0
   53.4037  -27.1000  -25.3122 C   0  0  0  0  0  0  0  0  0  0  0  0
   54.9209  -27.1015  -25.3163 C   0  0  0  0  0  0  0  0  0  0  0  0
   55.4303  -28.1462  -26.2915 C   0  0  0  0  0  0  0  0  0  0  0  0
   56.9476  -28.1490  -26.2942 C   0  0  0  0  0  0  0  0  0  0  0  0
   57.4570  -29.1924  -27.2709 C   0  0  0  0  0  0  0  0  0  0  0  0
   58.9742  -29.1938  -27.2751 C   0  0  0  0  0  0  0  0  0  0  0  0
   59.4836  -30.2372  -28.2518 C   0  0  0  0  0  0  0  0  0  0  0  0
   61.0009  -30.2373  -28.2574 C   0  0  0  0  0  0  0  0  0  0  0  0
   61.5103  -31.2806  -29.2341 C   0  0  0  0  0  0  0  0  0  0  0  0
   63.0276  -31.2807  -29.2397 C   0  0  0  0  0  0  0  0  0  0  0  0
   63.5370  -32.3240  -30.2165 C   0  0  0  0  0  0  0  0  0  0  0  0
   65.0542  -32.3241  -30.2221 C   0  0  0  0  0  0  0  0  0  0  0  0
   65.5636  -33.3675  -31.1988 C   0  0  0  0  0  0  0  0  0  0  0  0
   67.0809  -33.3675  -31.2044 C   0  0  0  0  0  0  0  0  0  0  0  0
   67.5903  -34.4109  -32.1811 C   0  0  0  0  0  0  0  0  0  0  0  0
   69.1075  -34.4110  -32.1868 C   0  0  0  0  0  0  0  0  0  0  0  0
   69.6169  -35.4543  -33.1635 C   0  0  0  0  0  0  0  0  0  0  0  0
   71.1342  -35.4530  -33.1706 C   0  0  0  0  0  0  0  0  0  0  0  0
   71.6436  -36.4964  -34.1473 C   0  0  0  0  0  0  0  0  0  0  0  0
   73.1608  -36.4951  -34.1544 C   0  0  0  0  0  0  0  0  0  0  0  0
   73.6702  -37.5384  -35.1311 C   0  0  0  0  0  0  0  0  0  0  0  0
   75.1873  -37.5370  -35.1381 C   0  0  0  0  0  0  0  0  0  0  0  0
   75.6966  -38.5803  -36.1148 C   0  0  0  0  0  0  0  0  0  0  0  0
   77.2141  -38.5807  -36.1207 C   0  0  0  0  0  0  0  0  0  0  0  0
   77.7248  -39.6241  -37.0975 C   0  0  0  0  0  0  0  0  0  0  0  0
   79.2425  -39.6251  -37.1040 C   0  0  0  0  0  0  0  0  0  0  0  0
   79.7550  -40.6697  -38.0791 C   0  0  0  0  0  0  0  0  0  0  0  0
   81.2752  -40.6791  -38.0907 C   0  0  0  0  0  0  0  0  0  0  0  0
   81.7844  -41.7228  -39.0649 C   0  0  0  0  0  0  0  0  0  0  0  0
    0.6430    0.6637    0.7555 H   0  0  0  0  0  0  0  0  0  0  0  0
    2.6980   -0.2228    1.1392 H   0  0  0  0  0  0  0  0  0  0  0  0
    2.6957    1.0038   -0.1538 H   0  0  0  0  0  0  0  0  0  0  0  0
    2.4761   -0.8149   -1.8601 H   0  0  0  0  0  0  0  0  0  0  0  0
    2.4761   -2.0226   -0.5882 H   0  0  0  0  0  0  0  0  0  0  0  0
    4.7594   -1.2665    0.1386 H   0  0  0  0  0  0  0  0  0  0  0  0
    4.7595   -0.0499   -1.1427 H   0  0  0  0  0  0  0  0  0  0  0  0
    4.5217   -1.8544   -2.8569 H   0  0  0  0  0  0  0  0  0  0  0  0
    4.5216   -3.0719   -1.5746 H   0  0  0  0  0  0  0  0  0  0  0  0
    6.7886   -2.3061   -0.8498 H   0  0  0  0  0  0  0  0  0  0  0  0
    6.7885   -1.0916   -2.1324 H   0  0  0  0  0  0  0  0  0  0  0  0
    6.5584   -2.9137   -3.8495 H   0  0  0  0  0  0  0  0  0  0  0  0
    6.5606   -4.1204   -2.5737 H   0  0  0  0  0  0  0  0  0  0  0  0
    8.8163   -3.3544   -1.8326 H   0  0  0  0  0  0  0  0  0  0  0  0
    8.8140   -2.1272   -3.1301 H   0  0  0  0  0  0  0  0  0  0  0  0
   10.7033   -4.3233   -2.7499 H   0  0  0  0  0  0  0  0  0  0  0  0
   10.7032   -3.0971   -4.0485 H   0  0  0  0  0  0  0  0  0  0  0  0
   10.4489   -4.9129   -5.7412 H   0  0  0  0  0  0  0  0  0  0  0  0
   10.4512   -6.1178   -4.4637 H   0  0  0  0  0  0  0  0  0  0  0  0
   12.7345   -5.3535   -3.7407 H   0  0  0  0  0  0  0  0  0  0  0  0
   12.7322   -4.1432   -5.0275 H   0  0  0  0  0  0  0  0  0  0  0  0
   12.4949   -5.9541   -6.7325 H   0  0  0  0  0  0  0  0  0  0  0  0
   12.4950   -7.1661   -5.4452 H   0  0  0  0  0  0  0  0  0  0  0  0
   14.7617   -6.3977   -4.7219 H   0  0  0  0  0  0  0  0  0  0  0  0
   14.7616   -5.1859   -6.0090 H   0  0  0  0  0  0  0  0  0  0  0  0
   14.5212   -6.9987   -7.7145 H   0  0  0  0  0  0  0  0  0  0  0  0
   14.5235   -8.2097   -6.4270 H   0  0  0  0  0  0  0  0  0  0  0  0
   16.7899   -7.4404   -5.7064 H   0  0  0  0  0  0  0  0  0  0  0  0
   16.7877   -6.2275   -6.9923 H   0  0  0  0  0  0  0  0  0  0  0  0
   16.5492   -8.0373   -8.6998 H   0  0  0  0  0  0  0  0  0  0  0  0
   16.5492   -9.2507   -7.4146 H   0  0  0  0  0  0  0  0  0  0  0  0
   18.8156   -8.4819   -6.6898 H   0  0  0  0  0  0  0  0  0  0  0  0
   18.8155   -7.2703   -7.9767 H   0  0  0  0  0  0  0  0  0  0  0  0
   18.5748   -9.0830   -9.6823 H   0  0  0  0  0  0  0  0  0  0  0  0
   18.5771  -10.2939   -8.3948 H   0  0  0  0  0  0  0  0  0  0  0  0
   20.8434   -9.5217   -7.6736 H   0  0  0  0  0  0  0  0  0  0  0  0
   20.8411   -8.3125   -8.9627 H   0  0  0  0  0  0  0  0  0  0  0  0
   20.6026  -10.1270  -10.6652 H   0  0  0  0  0  0  0  0  0  0  0  0
   20.6026  -11.3368   -9.3765 H   0  0  0  0  0  0  0  0  0  0  0  0
   22.8689  -10.5659   -8.6539 H   0  0  0  0  0  0  0  0  0  0  0  0
   22.8689   -9.3579   -9.9442 H   0  0  0  0  0  0  0  0  0  0  0  0
   22.6304  -11.1738  -11.6451 H   0  0  0  0  0  0  0  0  0  0  0  0
   22.6281  -12.3824  -10.3554 H   0  0  0  0  0  0  0  0  0  0  0  0
   24.8944  -11.6143   -9.6315 H   0  0  0  0  0  0  0  0  0  0  0  0
   24.8967  -10.4057  -10.9212 H   0  0  0  0  0  0  0  0  0  0  0  0
   24.6559  -12.2222  -12.6228 H   0  0  0  0  0  0  0  0  0  0  0  0
   24.6559  -13.4301  -11.3324 H   0  0  0  0  0  0  0  0  0  0  0  0
   26.9222  -12.6596  -10.6111 H   0  0  0  0  0  0  0  0  0  0  0  0
   26.9222  -11.4517  -11.9015 H   0  0  0  0  0  0  0  0  0  0  0  0
   26.6826  -13.2684  -13.6021 H   0  0  0  0  0  0  0  0  0  0  0  0
   26.6826  -14.4763  -12.3118 H   0  0  0  0  0  0  0  0  0  0  0  0
   28.9489  -13.7058  -11.5905 H   0  0  0  0  0  0  0  0  0  0  0  0
   28.9489  -12.4979  -12.8808 H   0  0  0  0  0  0  0  0  0  0  0  0
   28.7092  -14.3146  -14.5815 H   0  0  0  0  0  0  0  0  0  0  0  0
   28.7092  -15.5225  -13.2912 H   0  0  0  0  0  0  0  0  0  0  0  0
   30.9755  -14.7520  -12.5699 H   0  0  0  0  0  0  0  0  0  0  0  0
   30.9755  -13.5441  -13.8602 H   0  0  0  0  0  0  0  0  0  0  0  0
   30.7359  -15.3608  -15.5609 H   0  0  0  0  0  0  0  0  0  0  0  0
   30.7359  -16.5687  -14.2706 H   0  0  0  0  0  0  0  0  0  0  0  0
   33.0022  -15.7982  -13.5493 H   0  0  0  0  0  0  0  0  0  0  0  0
   33.0022  -14.5903  -14.8396 H   0  0  0  0  0  0  0  0  0  0  0  0
   32.7637  -16.4062  -16.5405 H   0  0  0  0  0  0  0  0  0  0  0  0
   32.7614  -17.6147  -15.2508 H   0  0  0  0  0  0  0  0  0  0  0  0
   35.0277  -16.8466  -14.5270 H   0  0  0  0  0  0  0  0  0  0  0  0
   35.0300  -15.6381  -15.8167 H   0  0  0  0  0  0  0  0  0  0  0  0
   34.7892  -17.4546  -17.5182 H   0  0  0  0  0  0  0  0  0  0  0  0
   34.7892  -18.6625  -16.2279 H   0  0  0  0  0  0  0  0  0  0  0  0
   37.0555  -17.8906  -15.5063 H   0  0  0  0  0  0  0  0  0  0  0  0
   37.0555  -16.6844  -16.7983 H   0  0  0  0  0  0  0  0  0  0  0  0
   36.8147  -18.5044  -18.4962 H   0  0  0  0  0  0  0  0  0  0  0  0
   36.8170  -19.7098  -17.2035 H   0  0  0  0  0  0  0  0  0  0  0  0
   39.0833  -18.9345  -16.4856 H   0  0  0  0  0  0  0  0  0  0  0  0
   39.0810  -17.7309  -17.7799 H   0  0  0  0  0  0  0  0  0  0  0  0
   38.8425  -19.5525  -19.4746 H   0  0  0  0  0  0  0  0  0  0  0  0
   38.8426  -20.7568  -18.1809 H   0  0  0  0  0  0  0  0  0  0  0  0
   41.1088  -19.9857  -17.4621 H   0  0  0  0  0  0  0  0  0  0  0  0
   41.1088  -18.7796  -18.7541 H   0  0  0  0  0  0  0  0  0  0  0  0
   40.8692  -20.5987  -20.4522 H   0  0  0  0  0  0  0  0  0  0  0  0
   40.8692  -21.8048  -19.1602 H   0  0  0  0  0  0  0  0  0  0  0  0
   43.1355  -21.0333  -18.4400 H   0  0  0  0  0  0  0  0  0  0  0  0
   43.1355  -19.8272  -19.7320 H   0  0  0  0  0  0  0  0  0  0  0  0
   42.8958  -21.6463  -21.4301 H   0  0  0  0  0  0  0  0  0  0  0  0
   42.8958  -22.8524  -20.1381 H   0  0  0  0  0  0  0  0  0  0  0  0
   45.1622  -22.0808  -19.4179 H   0  0  0  0  0  0  0  0  0  0  0  0
   45.1622  -20.8747  -20.7099 H   0  0  0  0  0  0  0  0  0  0  0  0
   44.9225  -22.6938  -22.4080 H   0  0  0  0  0  0  0  0  0  0  0  0
   44.9225  -23.8999  -21.1160 H   0  0  0  0  0  0  0  0  0  0  0  0
   47.1888  -23.1284  -20.3958 H   0  0  0  0  0  0  0  0  0  0  0  0
   47.1888  -21.9223  -21.6878 H   0  0  0  0  0  0  0  0  0  0  0  0
   46.9492  -23.7414  -23.3859 H   0  0  0  0  0  0  0  0  0  0  0  0
   46.9492  -24.9475  -22.0939 H   0  0  0  0  0  0  0  0  0  0  0  0
   49.2155  -24.1760  -21.3737 H   0  0  0  0  0  0  0  0  0  0  0  0
   49.2155  -22.9699  -22.6657 H   0  0  0  0  0  0  0  0  0  0  0  0
   48.9747  -24.7898  -24.3636 H   0  0  0  0  0  0  0  0  0  0  0  0
   48.9770  -25.9953  -23.0710 H   0  0  0  0  0  0  0  0  0  0  0  0
   51.2433  -25.2214  -22.3533 H   0  0  0  0  0  0  0  0  0  0  0  0
   51.2410  -24.0159  -23.6459 H   0  0  0  0  0  0  0  0  0  0  0  0
   51.0025  -25.8352  -25.3432 H   0  0  0  0  0  0  0  0  0  0  0  0
   51.0025  -27.0413  -24.0512 H   0  0  0  0  0  0  0  0  0  0  0  0
   53.2688  -26.2683  -23.3307 H   0  0  0  0  0  0  0  0  0  0  0  0
   53.2688  -25.0640  -24.6244 H   0  0  0  0  0  0  0  0  0  0  0  0
   53.0280  -26.8863  -26.3197 H   0  0  0  0  0  0  0  0  0  0  0  0
   53.0303  -28.0900  -25.0254 H   0  0  0  0  0  0  0  0  0  0  0  0
   55.2966  -27.3165  -24.3091 H   0  0  0  0  0  0  0  0  0  0  0  0
   55.2943  -26.1110  -25.6017 H   0  0  0  0  0  0  0  0  0  0  0  0
   55.0558  -27.9303  -27.2990 H   0  0  0  0  0  0  0  0  0  0  0  0
   55.0558  -29.1364  -26.0070 H   0  0  0  0  0  0  0  0  0  0  0  0
   57.3221  -28.3663  -25.2871 H   0  0  0  0  0  0  0  0  0  0  0  0
   57.3221  -27.1584  -26.5774 H   0  0  0  0  0  0  0  0  0  0  0  0
   57.0813  -28.9759  -28.2778 H   0  0  0  0  0  0  0  0  0  0  0  0
   57.0836  -30.1832  -26.9869 H   0  0  0  0  0  0  0  0  0  0  0  0
   59.3500  -29.4103  -26.2682 H   0  0  0  0  0  0  0  0  0  0  0  0
   59.3476  -28.2030  -27.5591 H   0  0  0  0  0  0  0  0  0  0  0  0
   59.1068  -30.0215  -29.2584 H   0  0  0  0  0  0  0  0  0  0  0  0
   59.1115  -31.2282  -27.9670 H   0  0  0  0  0  0  0  0  0  0  0  0
   61.3778  -30.4529  -27.2508 H   0  0  0  0  0  0  0  0  0  0  0  0
   61.3731  -29.2462  -28.5423 H   0  0  0  0  0  0  0  0  0  0  0  0
   61.1334  -31.0649  -30.2408 H   0  0  0  0  0  0  0  0  0  0  0  0
   61.1381  -32.2716  -28.9493 H   0  0  0  0  0  0  0  0  0  0  0  0
   63.4044  -31.4963  -28.2331 H   0  0  0  0  0  0  0  0  0  0  0  0
   63.3997  -30.2896  -29.5246 H   0  0  0  0  0  0  0  0  0  0  0  0
   63.1601  -32.1084  -31.2231 H   0  0  0  0  0  0  0  0  0  0  0  0
   63.1648  -33.3151  -29.9316 H   0  0  0  0  0  0  0  0  0  0  0  0
   65.4311  -32.5398  -29.2155 H   0  0  0  0  0  0  0  0  0  0  0  0
   65.4264  -31.3331  -30.5069 H   0  0  0  0  0  0  0  0  0  0  0  0
   65.1867  -33.1518  -32.2054 H   0  0  0  0  0  0  0  0  0  0  0  0
   65.1914  -34.3585  -30.9140 H   0  0  0  0  0  0  0  0  0  0  0  0
   67.4577  -33.5832  -30.1978 H   0  0  0  0  0  0  0  0  0  0  0  0
   67.4530  -32.3765  -31.4893 H   0  0  0  0  0  0  0  0  0  0  0  0
   67.2134  -34.1952  -33.1878 H   0  0  0  0  0  0  0  0  0  0  0  0
   67.2181  -35.4019  -31.8963 H   0  0  0  0  0  0  0  0  0  0  0  0
   69.4844  -34.6266  -31.1802 H   0  0  0  0  0  0  0  0  0  0  0  0
   69.4797  -33.4199  -32.4716 H   0  0  0  0  0  0  0  0  0  0  0  0
   69.2389  -35.2395  -34.1698 H   0  0  0  0  0  0  0  0  0  0  0  0
   69.2459  -36.4455  -32.8778 H   0  0  0  0  0  0  0  0  0  0  0  0
   71.5122  -35.6679  -32.1642 H   0  0  0  0  0  0  0  0  0  0  0  0
   71.5052  -34.4618  -33.4562 H   0  0  0  0  0  0  0  0  0  0  0  0
   71.2655  -36.2815  -35.1536 H   0  0  0  0  0  0  0  0  0  0  0  0
   71.2726  -37.4876  -33.8616 H   0  0  0  0  0  0  0  0  0  0  0  0
   73.5389  -36.7099  -33.1480 H   0  0  0  0  0  0  0  0  0  0  0  0
   73.5318  -35.5038  -34.4401 H   0  0  0  0  0  0  0  0  0  0  0  0
   73.2922  -37.3236  -36.1375 H   0  0  0  0  0  0  0  0  0  0  0  0
   73.2992  -38.5296  -34.8454 H   0  0  0  0  0  0  0  0  0  0  0  0
   75.5655  -37.7519  -34.1318 H   0  0  0  0  0  0  0  0  0  0  0  0
   75.5584  -36.5459  -35.4239 H   0  0  0  0  0  0  0  0  0  0  0  0
   75.3199  -38.3648  -37.1215 H   0  0  0  0  0  0  0  0  0  0  0  0
   75.3247  -39.5715  -35.8301 H   0  0  0  0  0  0  0  0  0  0  0  0
   77.5909  -38.7961  -35.1137 H   0  0  0  0  0  0  0  0  0  0  0  0
   77.5862  -37.5892  -36.4053 H   0  0  0  0  0  0  0  0  0  0  0  0
   77.3463  -39.4080  -38.1039 H   0  0  0  0  0  0  0  0  0  0  0  0
   77.3510  -40.6149  -36.8122 H   0  0  0  0  0  0  0  0  0  0  0  0
   79.6179  -39.8385  -36.0962 H   0  0  0  0  0  0  0  0  0  0  0  0
   79.6132  -38.6335  -37.3894 H   0  0  0  0  0  0  0  0  0  0  0  0
   79.3757  -40.4538  -39.0853 H   0  0  0  0  0  0  0  0  0  0  0  0
   79.3781  -41.6592  -37.7929 H   0  0  0  0  0  0  0  0  0  0  0  0
   81.6542  -40.8948  -37.0848 H   0  0  0  0  0  0  0  0  0  0  0  0
   81.6519  -39.6900  -38.3766 H   0  0  0  0  0  0  0  0  0  0  0  0
   81.4341  -42.7207  -38.7815 H   0  0  0  0  0  0  0  0  0  0  0  0
   82.8769  -41.7295  -39.0732 H   0  0  0  0  0  0  0  0  0  0  0  0
   81.4318  -41.5101  -40.0795 H   0  0  0  0  0  0  0  0  0  0  0  0
  1  2  1  0  0  0  0
  1 82  1  0  0  0  0
  2  3  1  0  0  0  0
  2 83  1  0  0  0  0
  2 84  1  0  0  0  0
  3  4  1  0  0  0  0
  3 85  1  0  0  0  0
  3 86  1  0  0  0  0
  4  5  1  0  0  0  0
  4 87  1  0  0  0  0
  4 88  1  0  0  0  0
  5  6  1  0  0  0  0
  5 89  1  0  0  0  0
  5 90  1  0  0  0  0
  6  7  1  0  0  0  0
  6 91  1  0  0  0  0
  6 92  1  0  0  0  0
  7  8  1  0  0  0  0
  7 93  1  0  0  0  0
  7 94  1  0  0  0  0
  8  9  1  0  0  0  0
  8 95  1  0  0  0  0
  8 96  1  0  0  0  0
  9 10  1  0  0  0  0
 10 11  1  0  0  0  0
 10 97  1  0  0  0  0
 10 98  1  0  0  0  0
 11 12  1  0  0  0  0
 11 99  1  0  0  0  0
 11100  1  0  0  0  0
 12 13  1  0  0  0  0
 12101  1  0  0  0  0
 12102  1  0  0  0  0
 13 14  1  0  0  0  0
 13103  1  0  0  0  0
 13104  1  0  0  0  0
 14 15  1  0  0  0  0
 14105  1  0  0  0  0
 14106  1  0  0  0  0
 15 16  1  0  0  0  0
 15107  1  0  0  0  0
 15108  1  0  0  0  0
 16 17  1  0  0  0  0
 16109  1  0  0  0  0
 16110  1  0  0  0  0
 17 18  1  0  0  0  0
 17111  1  0  0  0  0
 17112  1  0  0  0  0
 18 19  1  0  0  0  0
 18113  1  0  0  0  0
 18114  1  0  0  0  0
 19 20  1  0  0  0  0
 19115  1  0  0  0  0
 19116  1  0  0  0  0
 20 21  1  0  0  0  0
 20117  1  0  0  0  0
 20118  1  0  0  0  0
 21 22  1  0  0  0  0
 21119  1  0  0  0  0
 21120  1  0  0  0  0
 22 23  1  0  0  0  0
 22121  1  0  0  0  0
 22122  1  0  0  0  0
 23 24  1  0  0  0  0
 23123  1  0  0  0  0
 23124  1  0  0  0  0
 24 25  1  0  0  0  0
 24125  1  0  0  0  0
 24126  1  0  0  0  0
 25 26  1  0  0  0  0
 25127  1  0  0  0  0
 25128  1  0  0  0  0
 26 27  1  0  0  0  0
 26129  1  0  0  0  0
 26130  1  0  0  0  0
 27 28  1  0  0  0  0
 27131  1  0  0  0  0
 27132  1  0  0  0  0
 28 29  1  0  0  0  0
 28133  1  0  0  0  0
 28134  1  0  0  0  0
 29 30  1  0  0  0  0
 29135  1  0  0  0  0
 29136  1  0  0  0  0
 30 31  1  0  0  0  0
 30137  1  0  0  0  0
 30138  1  0  0  0  0
 31 32  1  0  0  0  0
 31139  1  0  0  0  0
 31140  1  0  0  0  0
 32 33  1  0  0  0  0
 32141  1  0  0  0  0
 32142  1  0  0  0  0
 33 34  1  0  0  0  0
 33143  1  0  0  0  0
 33144  1  0  0  0  0
 34 35  1  0  0  0  0
 34145  1  0  0  0  0
 34146  1  0  0  0  0
 35 36  1  0  0  0  0
 35147  1  0  0  0  0
 35148  1  0  0  0  0
 36 37  1  0  0  0  0
 36149  1  0  0  0  0
 36150  1  0  0  0  0
 37 38  1  0  0  0  0
 37151  1  0  0  0  0
 37152  1  0  0  0  0
 38 39  1  0  0  0  0
 38153  1  0  0  0  0
 38154  1  0  0  0  0
 39 40  1  0  0  0  0
 39155  1  0  0  0  0
 39156  1  0  0  0  0
 40 41  1  0  0  0  0
 40157  1  0  0  0  0
 40158  1  0  0  0  0
 41 42  1  0  0  0  0
 41159  1  0  0  0  0
 41160  1  0  0  0  0
 42 43  1  0  0  0  0
 42161  1  0  0  0  0
 42162  1  0  0  0  0
 43 44  1  0  0  0  0
 43163  1  0  0  0  0
 43164  1  0  0  0  0
 44 45  1  0  0  0  0
 44165  1  0  0  0  0
 44166  1  0  0  0  0
 45 46  1  0  0  0  0
 45167  1  0  0  0  0
 45168  1  0  0  0  0
 46 47  1  0  0  0  0
 46169  1  0  0  0  0
 46170  1  0  0  0  0
 47 48  1  0  0  0  0
 47171  1  0  0  0  0
 47172  1  0  0  0  0
 48 49  1  0  0  0  0
 48173  1  0  0  0  0
 48174  1  0  0  0  0
 49 50  1  0  0  0  0
 49175  1  0  0  0  0
 49176  1  0  0  0  0
 50 51  1  0  0  0  0
 50177  1  0  0  0  0
 50178  1  0  0  0  0
 51 52  1  0  0  0  0
 51179  1  0  0  0  0
 51180  1  0  0  0  0
 52 53  1  0  0  0  0
 52181  1  0  0  0  0
 52182  1  0  0  0  0
 53 54  1  0  0  0  0
 53183  1  0  0  0  0
 53184  1  0  0  0  0
 54 55  1  0  0  0  0
 54185  1  0  0  0  0
 54186  1  0  0  0  0
 55 56  1  0  0  0  0
 55187  1  0  0  0  0
 55188  1  0  0  0  0
 56 57  1  0  0  0  0
 56189  1  0  0  0  0
 56190  1  0  0  0  0
 57 58  1  0  0  0  0
 57191  1  0  0  0  0
 57192  1  0  0  0  0
 58 59  1  0  0  0  0
 58193  1  0  0  0  0
 58194  1  0  0  0  0
 59 60  1  0  0  0  0
 59195  1  0  0  0  0
 59196  1  0  0  0  0
 60 61  1  0  0  0  0
 60197  1  0  0  0  0
 60198  1  0  0  0  0
 61 62  1  0  0  0  0
 61199  1  0  0  0  0
 61200  1  0  0  0  0
 62 63  1  0  0  0  0
 62201  1  0  0  0  0
 62202  1  0  0  0  0
 63 64  1  0  0  0  0
 63203  1  0  0  0  0
 63204  1  0  0  0  0
 64 65  1  0  0  0  0
 64205  1  0  0  0  0
 64206  1  0  0  0  0
 65 66  1  0  0  0  0
 65207  1  0  0  0  0
 65208  1  0  0  0  0
 66 67  1  0  0  0  0
 66209  1  0  0  0  0
 66210  1  0  0  0  0
 67 68  1  0  0  0  0
 67211  1  0  0  0  0
 67212  1  0  0  0  0
 68 69  1  0  0  0  0
 68213  1  0  0  0  0
 68214  1  0  0  0  0
 69 70  1  0  0  0  0
 69215  1  0  0  0  0
 69216  1  0  0  0  0
 70 71  1  0  0  0  0
 70217  1  0  0  0  0
 70218  1  0  0  0  0
 71 72  1  0  0  0  0
 71219  1  0  0  0  0
 71220  1  0  0  0  0
 72 73  1  0  0  0  0
 72221  1  0  0  0  0
 72222  1  0  0  0  0
 73 74  1  0  0  0  0
 73223  1  0  0  0  0
 73224  1  0  0  0  0
 74 75  1  0  0  0  0
 74225  1  0  0  0  0
 74226  1  0  0  0  0
 75 76  1  0  0  0  0
 75227  1  0  0  0  0
 75228  1  0  0  0  0
 76 77  1  0  0  0  0
 76229  1  0  0  0  0
 76230  1  0  0  0  0
 77 78  1  0  0  0  0
 77231  1  0  0  0  0
 77232  1  0  0  0  0
 78 79  1  0  0  0  0
 78233  1  0  0  0  0
 78234  1  0  0  0  0
 79 80  1  0  0  0  0
 79235  1  0  0  0  0
 79236  1  0  0  0  0
 80 81  1  0  0  0  0
 80237  1  0  0  0  0
 80238  1  0  0  0  0
 81239  1  0  0  0  0
 81240  1  0  0  0  0
 81241  1  0  0  0  0
M  END
$$$$
