
 OpenBabel04232217003D

133132  0  0  1  0  0  0  0  0999 V2000
   21.8360   -2.2625   12.9774 O   0  0  0  0  0  0  0  0  0  0  0  0
   21.1547   -1.4015   12.0668 C   0  0  3  0  0  0  0  0  0  0  0  0
   19.6563   -1.5924   12.2328 C   0  0  0  0  0  0  0  0  0  0  0  0
   21.5633    0.0498   12.3362 C   0  0  0  0  0  0  0  0  0  0  0  0
   23.0553    0.2648   12.1196 C   0  0  0  0  0  0  0  0  0  0  0  0
   23.3330    1.6629   12.2143 O   0  0  0  0  0  0  0  0  0  0  0  0
   24.7651    1.7744   11.9967 O   0  0  0  0  0  0  0  0  0  0  0  0
   25.2336    3.0764   12.4179 O   0  0  0  0  0  0  0  0  0  0  0  0
   25.2191    3.1692   13.8617 O   0  0  0  0  0  0  0  0  0  0  0  0
   25.5865    4.4991   14.2820 O   0  0  0  0  0  0  0  0  0  0  0  0
   25.0598    4.7726   15.6023 O   0  0  0  0  0  0  0  0  0  0  0  0
   25.4521    6.0963   16.0261 O   0  0  0  0  0  0  0  0  0  0  0  0
   24.8233    7.0877   15.1826 O   0  0  0  0  0  0  0  0  0  0  0  0
   25.1362    8.4092   15.6583 N   0  0  0  0  0  0  0  0  0  0  0  0
   24.3216    9.3433   14.9947 N   0  0  0  0  0  0  0  0  0  0  0  0
   24.7829   10.6506   15.3037 N   0  0  0  0  0  0  0  0  0  0  0  0
   26.1563   10.8511   14.9122 N   0  0  0  0  0  0  0  0  0  0  0  0
   26.4161   10.6000   13.5404 N   0  0  0  0  0  0  0  0  0  0  0  0
   25.8045   11.5923   12.7361 N   0  0  0  0  0  0  0  0  0  0  0  0
   26.3427   12.8698   13.1599 N   0  0  0  0  0  0  0  0  0  0  0  0
   27.7961   12.8171   13.1468 N   0  0  0  0  0  0  0  0  0  0  0  0
   28.2835   12.6942   11.8067 N   0  0  0  0  0  0  0  0  0  0  0  0
   27.7298   13.7015   10.9526 N   0  0  0  0  0  0  0  0  0  0  0  0
   28.0716   15.0096   11.3670 N   0  0  0  0  0  0  0  0  0  0  0  0
   29.4703   15.1639   11.2618 N   0  0  0  0  0  0  0  0  0  0  0  0
   29.7958   15.1242    9.8361 N   0  0  0  0  0  0  0  0  0  0  0  0
   29.1520   16.1894    9.0985 N   0  0  0  0  0  0  0  0  0  0  0  0
   29.5642   17.4587    9.5903 N   0  0  0  0  0  0  0  0  0  0  0  0
   31.0122   17.4950    9.4537 N   0  0  0  0  0  0  0  0  0  0  0  0
   31.3687   17.2692    8.0478 N   0  0  0  0  0  0  0  0  0  0  0  0
   30.6696   18.2063    7.2428 N   0  0  0  0  0  0  0  0  0  0  0  0
   31.1629   19.5406    7.5044 N   0  0  0  0  0  0  0  0  0  0  0  0
   32.6055   19.5624    7.5290 N   0  0  0  0  0  0  0  0  0  0  0  0
   33.0579   19.4835    6.1568 N   0  0  0  0  0  0  0  0  0  0  0  0
   32.3434   20.4911    5.3939 N   0  0  0  0  0  0  0  0  0  0  0  0
   32.6892   21.7982    5.8469 N   0  0  0  0  0  0  0  0  0  0  0  0
   34.1210   21.9301    5.8150 N   0  0  0  0  0  0  0  0  0  0  0  0
   34.5981   21.6554    4.4508 N   0  0  0  0  0  0  0  0  0  0  0  0
   33.9813   22.6060    3.5642 N   0  0  0  0  0  0  0  0  0  0  0  0
   34.4911   23.9364    3.8271 O   0  0  0  0  0  0  0  0  0  0  0  0
   33.5758   24.9356    3.3250 O   0  0  0  0  0  0  0  0  0  0  0  0
   33.9877   26.2569    3.7503 O   0  0  0  0  0  0  0  0  0  0  0  0
   33.6139   26.4843    5.1303 O   0  0  0  0  0  0  0  0  0  0  0  0
   34.5621   27.3717    5.7737 O   0  0  0  0  0  0  0  0  0  0  0  0
   34.1042   27.6962    7.1065 O   0  0  0  0  0  0  0  0  0  0  0  0
   34.2168   29.1160    7.3721 O   0  0  0  0  0  0  0  0  0  0  0  0
   34.2978   29.3289    8.8020 O   0  0  0  0  0  0  0  0  0  0  0  0
   35.0661   30.5124    9.1171 O   0  0  0  0  0  0  0  0  0  0  0  0
   34.6062   31.0680   10.3730 O   0  0  0  0  0  0  0  0  0  0  0  0
   35.0931   32.4169   10.5443 O   0  0  0  0  0  0  0  0  0  0  0  0
   35.1234   32.7622   11.9497 O   0  0  0  0  0  0  0  0  0  0  0  0
   35.6871   34.0808   12.1245 O   0  0  0  0  0  0  0  0  0  0  0  0
   35.2966   34.6388   13.4016 O   0  0  0  0  0  0  0  0  0  0  0  0
   35.9842   35.8926   13.6152 O   0  0  0  0  0  0  0  0  0  0  0  0
   36.1046   36.1881   15.0269 O   0  0  0  0  0  0  0  0  0  0  0  0
   36.3052   37.6117   15.2083 O   0  0  0  0  0  0  0  0  0  0  0  0
   35.8797   38.0314   16.5251 O   0  0  0  0  0  0  0  0  0  0  0  0
   36.8698   38.9099   17.1161 O   0  0  0  0  0  0  0  0  0  0  0  0
   36.4177   39.3718   18.4154 O   0  0  0  0  0  0  0  0  0  0  0  0
   37.0068   40.6578   18.7377 O   0  0  0  0  0  0  0  0  0  0  0  0
   36.5432   41.6657   17.8111 O   0  0  0  0  0  0  0  0  0  0  0  0
   36.9653   42.9945   18.2294 N   0  0  0  0  0  0  0  0  0  0  0  0
   36.4399   43.9675   17.3619 N   0  0  0  0  0  0  0  0  0  0  0  0
   35.0610   43.9868   17.6433 N   0  0  0  0  0  0  0  0  0  0  0  0
   34.3554   45.0071   16.9863 N   0  0  0  0  0  0  0  0  0  0  0  0
   32.9993   44.8700   17.3428 N   0  0  0  0  0  0  0  0  0  0  0  0
   32.2052   45.8740   16.7065 N   0  0  0  0  0  0  0  0  0  0  0  0
   30.8211   45.7784   17.0497 N   0  0  0  0  0  0  0  0  0  0  0  0
   30.6169   46.0202   18.4372 N   0  0  0  0  0  0  0  0  0  0  0  0
   29.2523   45.8095   18.8051 N   0  0  0  0  0  0  0  0  0  0  0  0
   29.1219   45.7831   20.2523 N   0  0  0  0  0  0  0  0  0  0  0  0
   27.7370   45.7604   20.6709 N   0  0  0  0  0  0  0  0  0  0  0  0
   27.5449   46.0402   22.0545 N   0  0  0  0  0  0  0  0  0  0  0  0
   28.0071   47.3094   22.4459 N   0  0  0  0  0  0  0  0  0  0  0  0
   27.8108   47.4242   23.8561 N   0  0  0  0  0  0  0  0  0  0  0  0
   28.3788   48.6168   24.3578 N   0  0  0  0  0  0  0  0  0  0  0  0
   28.3046   48.6812   25.7553 N   0  0  0  0  0  0  0  0  0  0  0  0
   28.9630   47.6410   26.3978 N   0  0  0  0  0  0  0  0  0  0  0  0
   28.5755   47.7887   27.7334 N   0  0  0  0  0  0  0  0  0  0  0  0
   21.6021   -3.1754   12.7454 H   0  0  0  0  0  0  0  0  0  0  0  0
   21.4531   -1.6824   11.0530 H   0  0  0  0  0  0  0  0  0  0  0  0
   19.3335   -1.3256   13.2443 H   0  0  0  0  0  0  0  0  0  0  0  0
   19.3859   -2.6438   12.0813 H   0  0  0  0  0  0  0  0  0  0  0  0
   19.0980   -0.9840   11.5141 H   0  0  0  0  0  0  0  0  0  0  0  0
   21.3191    0.3394   13.3667 H   0  0  0  0  0  0  0  0  0  0  0  0
   21.0002    0.7316   11.6853 H   0  0  0  0  0  0  0  0  0  0  0  0
   23.3497   -0.0761   11.1205 H   0  0  0  0  0  0  0  0  0  0  0  0
   23.6444   -0.2736   12.8704 H   0  0  0  0  0  0  0  0  0  0  0  0
   26.0907    8.4960   15.3161 H   0  0  0  0  0  0  0  0  0  0  0  0
   23.3556    9.2304   15.2951 H   0  0  0  0  0  0  0  0  0  0  0  0
   24.7517   10.7562   16.3102 H   0  0  0  0  0  0  0  0  0  0  0  0
   26.7485   10.2312   15.4660 H   0  0  0  0  0  0  0  0  0  0  0  0
   26.1585    9.6674   13.2617 H   0  0  0  0  0  0  0  0  0  0  0  0
   24.7981   11.5532   12.8810 H   0  0  0  0  0  0  0  0  0  0  0  0
   26.0560   13.0107   14.1427 H   0  0  0  0  0  0  0  0  0  0  0  0
   28.1101   12.0031   13.6918 H   0  0  0  0  0  0  0  0  0  0  0  0
   28.0326   11.7948   11.4139 H   0  0  0  0  0  0  0  0  0  0  0  0
   26.7200   13.6428   10.9185 H   0  0  0  0  0  0  0  0  0  0  0  0
   27.7117   15.1980   12.3087 H   0  0  0  0  0  0  0  0  0  0  0  0
   29.9311   14.3774   11.7416 H   0  0  0  0  0  0  0  0  0  0  0  0
   29.4055   14.2608    9.4520 H   0  0  0  0  0  0  0  0  0  0  0  0
   28.1319   16.0752    9.1062 H   0  0  0  0  0  0  0  0  0  0  0  0
   29.2824   17.5338   10.5757 H   0  0  0  0  0  0  0  0  0  0  0  0
   31.3490   16.6470    9.9026 H   0  0  0  0  0  0  0  0  0  0  0  0
   31.0423   16.3174    7.8188 H   0  0  0  0  0  0  0  0  0  0  0  0
   29.6494   18.1151    7.3906 H   0  0  0  0  0  0  0  0  0  0  0  0
   30.8473   19.9249    8.3911 H   0  0  0  0  0  0  0  0  0  0  0  0
   32.9107   18.7438    8.0708 H   0  0  0  0  0  0  0  0  0  0  0  0
   32.6892   18.5997    5.8113 H   0  0  0  0  0  0  0  0  0  0  0  0
   31.3589   20.3365    5.6425 H   0  0  0  0  0  0  0  0  0  0  0  0
   32.3744   21.8813    6.8129 H   0  0  0  0  0  0  0  0  0  0  0  0
   34.4474   21.1519    6.4209 H   0  0  0  0  0  0  0  0  0  0  0  0
   34.1060   20.7592    4.2602 H   0  0  0  0  0  0  0  0  0  0  0  0
   33.0427   22.6674    3.9953 H   0  0  0  0  0  0  0  0  0  0  0  0
   37.9592   42.9229   18.0260 H   0  0  0  0  0  0  0  0  0  0  0  0
   36.6872   43.7034   16.4004 H   0  0  0  0  0  0  0  0  0  0  0  0
   35.0037   44.0425   18.6709 H   0  0  0  0  0  0  0  0  0  0  0  0
   34.4270   44.9051   15.9739 H   0  0  0  0  0  0  0  0  0  0  0  0
   32.9589   44.9605   18.3584 H   0  0  0  0  0  0  0  0  0  0  0  0
   32.2923   45.7815   15.6913 H   0  0  0  0  0  0  0  0  0  0  0  0
   30.4420   44.8679   16.7981 H   0  0  0  0  0  0  0  0  0  0  0  0
   30.8887   46.9806   18.6526 H   0  0  0  0  0  0  0  0  0  0  0  0
   28.9509   44.9241   18.3845 H   0  0  0  0  0  0  0  0  0  0  0  0
   29.5426   46.6425   20.6412 H   0  0  0  0  0  0  0  0  0  0  0  0
   27.3088   44.8479   20.5201 H   0  0  0  0  0  0  0  0  0  0  0  0
   27.9080   45.3285   22.6913 H   0  0  0  0  0  0  0  0  0  0  0  0
   27.4214   48.0229   22.0032 H   0  0  0  0  0  0  0  0  0  0  0  0
   28.2473   46.6379   24.3553 H   0  0  0  0  0  0  0  0  0  0  0  0
   27.9178   49.4504   23.9862 H   0  0  0  0  0  0  0  0  0  0  0  0
   27.3651   48.7354   26.1562 H   0  0  0  0  0  0  0  0  0  0  0  0
   29.9747   47.7899   26.3478 H   0  0  0  0  0  0  0  0  0  0  0  0
   27.5590   47.8421   27.7989 H   0  0  0  0  0  0  0  0  0  0  0  0
   28.8885   48.7142   28.0361 H   0  0  0  0  0  0  0  0  0  0  0  0
  1  2  1  0  0  0  0
  1 80  1  0  0  0  0
  2  3  1  0  0  0  0
  2  4  1  0  0  0  0
  2 81  1  0  0  0  0
  3 82  1  0  0  0  0
  3 83  1  0  0  0  0
  3 84  1  0  0  0  0
  4  5  1  0  0  0  0
  4 85  1  0  0  0  0
  4 86  1  0  0  0  0
  5  6  1  0  0  0  0
  5 87  1  0  0  0  0
  5 88  1  0  0  0  0
  6  7  1  0  0  0  0
  7  8  1  0  0  0  0
  8  9  1  0  0  0  0
  9 10  1  0  0  0  0
 10 11  1  0  0  0  0
 11 12  1  0  0  0  0
 12 13  1  0  0  0  0
 13 14  1  0  0  0  0
 14 15  1  0  0  0  0
 14 89  1  0  0  0  0
 15 16  1  0  0  0  0
 15 90  1  0  0  0  0
 16 17  1  0  0  0  0
 16 91  1  0  0  0  0
 17 18  1  0  0  0  0
 17 92  1  0  0  0  0
 18 19  1  0  0  0  0
 18 93  1  0  0  0  0
 19 20  1  0  0  0  0
 19 94  1  0  0  0  0
 20 21  1  0  0  0  0
 20 95  1  0  0  0  0
 21 22  1  0  0  0  0
 21 96  1  0  0  0  0
 22 23  1  0  0  0  0
 22 97  1  0  0  0  0
 23 24  1  0  0  0  0
 23 98  1  0  0  0  0
 24 25  1  0  0  0  0
 24 99  1  0  0  0  0
 25 26  1  0  0  0  0
 25100  1  0  0  0  0
 26 27  1  0  0  0  0
 26101  1  0  0  0  0
 27 28  1  0  0  0  0
 27102  1  0  0  0  0
 28 29  1  0  0  0  0
 28103  1  0  0  0  0
 29 30  1  0  0  0  0
 29104  1  0  0  0  0
 30 31  1  0  0  0  0
 30105  1  0  0  0  0
 31 32  1  0  0  0  0
 31106  1  0  0  0  0
 32 33  1  0  0  0  0
 32107  1  0  0  0  0
 33 34  1  0  0  0  0
 33108  1  0  0  0  0
 34 35  1  0  0  0  0
 34109  1  0  0  0  0
 35 36  1  0  0  0  0
 35110  1  0  0  0  0
 36 37  1  0  0  0  0
 36111  1  0  0  0  0
 37 38  1  0  0  0  0
 37112  1  0  0  0  0
 38 39  1  0  0  0  0
 38113  1  0  0  0  0
 39 40  1  0  0  0  0
 39114  1  0  0  0  0
 40 41  1  0  0  0  0
 41 42  1  0  0  0  0
 42 43  1  0  0  0  0
 43 44  1  0  0  0  0
 44 45  1  0  0  0  0
 45 46  1  0  0  0  0
 46 47  1  0  0  0  0
 47 48  1  0  0  0  0
 48 49  1  0  0  0  0
 49 50  1  0  0  0  0
 50 51  1  0  0  0  0
 51 52  1  0  0  0  0
 52 53  1  0  0  0  0
 53 54  1  0  0  0  0
 54 55  1  0  0  0  0
 55 56  1  0  0  0  0
 56 57  1  0  0  0  0
 57 58  1  0  0  0  0
 58 59  1  0  0  0  0
 59 60  1  0  0  0  0
 60 61  1  0  0  0  0
 61 62  1  0  0  0  0
 62 63  1  0  0  0  0
 62115  1  0  0  0  0
 63 64  1  0  0  0  0
 63116  1  0  0  0  0
 64 65  1  0  0  0  0
 64117  1  0  0  0  0
 65 66  1  0  0  0  0
 65118  1  0  0  0  0
 66 67  1  0  0  0  0
 66119  1  0  0  0  0
 67 68  1  0  0  0  0
 67120  1  0  0  0  0
 68 69  1  0  0  0  0
 68121  1  0  0  0  0
 69 70  1  0  0  0  0
 69122  1  0  0  0  0
 70 71  1  0  0  0  0
 70123  1  0  0  0  0
 71 72  1  0  0  0  0
 71124  1  0  0  0  0
 72 73  1  0  0  0  0
 72125  1  0  0  0  0
 73 74  1  0  0  0  0
 73126  1  0  0  0  0
 74 75  1  0  0  0  0
 74127  1  0  0  0  0
 75 76  1  0  0  0  0
 75128  1  0  0  0  0
 76 77  1  0  0  0  0
 76129  1  0  0  0  0
 77 78  1  0  0  0  0
 77130  1  0  0  0  0
 78 79  1  0  0  0  0
 78131  1  0  0  0  0
 79132  1  0  0  0  0
 79133  1  0  0  0  0
M  END
$$$$
