
 OpenBabel04232216573D

 20 21  0  0  1  0  0  0  0  0999 V2000
    0.7334    0.9759   -0.0177 N   0  0  0  0  0  0  0  0  0  0  0  0
    1.9789    0.8449    0.0887 C   0  0  0  0  0  0  0  0  0  0  0  0
    3.3164    0.8119    0.6264 C   0  0  0  0  0  0  0  0  0  0  0  0
    4.3182    1.6945    0.0427 C   0  0  3  0  0  3  0  0  0  0  0  0
    4.0179    2.2914   -1.3107 C   0  0  0  0  0  0  0  0  0  0  0  0
    5.1760    2.5207    0.8743 C   0  0  0  0  0  0  0  0  0  0  0  0
    4.7284    3.1203    1.9964 C   0  0  0  0  0  0  0  0  0  0  0  0
    3.4658    3.0492    2.5528 N   0  0  0  0  0  0  0  0  0  0  0  0
    2.4951    2.7543    1.8039 N   0  0  0  0  0  0  0  0  0  0  0  0
    2.3495    1.3251    1.5320 C   0  0  0  0  0  0  0  0  0  0  0  0
    1.7427    0.5180    2.6553 C   0  0  0  0  0  0  0  0  0  0  0  0
    0.4543    0.6934   -0.9636 H   0  0  0  0  0  0  0  0  0  0  0  0
    3.4682    1.5961   -1.9542 H   0  0  0  0  0  0  0  0  0  0  0  0
    4.9304    2.5789   -1.8393 H   0  0  0  0  0  0  0  0  0  0  0  0
    3.3980    3.1890   -1.1858 H   0  0  0  0  0  0  0  0  0  0  0  0
    6.1895    2.6921    0.5267 H   0  0  0  0  0  0  0  0  0  0  0  0
    5.4266    3.7321    2.5613 H   0  0  0  0  0  0  0  0  0  0  0  0
    2.1154    0.8348    3.6344 H   0  0  0  0  0  0  0  0  0  0  0  0
    1.9155   -0.5578    2.5475 H   0  0  0  0  0  0  0  0  0  0  0  0
    0.6562    0.6786    2.6619 H   0  0  0  0  0  0  0  0  0  0  0  0
  1  2  2  0  0  0  0
  1 12  1  0  0  0  0
  2  3  1  0  0  0  0
  2 10  1  0  0  0  0
  3  4  1  0  0  0  0
  3 10  2  0  0  0  0
  4  5  1  0  0  0  0
  4  6  1  0  0  0  0
  5 13  1  0  0  0  0
  5 14  1  0  0  0  0
  5 15  1  0  0  0  0
  6  7  2  0  0  0  0
  6 16  1  0  0  0  0
  7  8  1  0  0  0  0
  7 17  1  0  0  0  0
  8  9  2  0  0  0  0
  9 10  1  0  0  0  0
 10 11  1  0  0  0  0
 11 18  1  0  0  0  0
 11 19  1  0  0  0  0
 11 20  1  0  0  0  0
M  END
$$$$
