
 OpenBabel04232217013D

184183  0  0  0  0  0  0  0  0999 V2000
    0.8913    0.0431    0.0358 O   0  0  0  0  0  0  0  0  0  0  0  0
    2.3102    0.0256    0.0554 C   0  0  0  0  0  0  0  0  0  0  0  0
    2.8264    1.1953   -0.7631 C   0  0  0  0  0  0  0  0  0  0  0  0
    4.3483    1.2152   -0.7719 C   0  0  0  0  0  0  0  0  0  0  0  0
    4.8685    2.3866   -1.5918 C   0  0  0  0  0  0  0  0  0  0  0  0
    6.3922    2.4007   -1.5970 C   0  0  0  0  0  0  0  0  0  0  0  0
    6.8939    3.5761   -2.4214 C   0  0  0  0  0  0  0  0  0  0  0  0
    8.3522    3.5785   -2.4195 N   0  0  0  0  0  0  0  0  0  0  0  0
    8.8396    4.7007   -3.2095 C   0  0  0  0  0  0  0  0  0  0  0  0
   10.3594    4.6971   -3.2024 C   0  0  0  0  0  0  0  0  0  0  0  0
   10.8773    5.8670   -4.0254 C   0  0  0  0  0  0  0  0  0  0  0  0
   12.3953    5.8767   -4.0295 C   0  0  0  0  0  0  0  0  0  0  0  0
   12.9062    7.0471   -4.8512 C   0  0  0  0  0  0  0  0  0  0  0  0
   14.4239    7.0553   -4.8520 C   0  0  0  0  0  0  0  0  0  0  0  0
   14.9352    8.2245   -5.6729 C   0  0  0  0  0  0  0  0  0  0  0  0
   16.4524    8.2300   -5.6742 C   0  0  0  0  0  0  0  0  0  0  0  0
   16.9630    9.3980   -6.4965 C   0  0  0  0  0  0  0  0  0  0  0  0
   18.4799    9.4044   -6.4962 C   0  0  0  0  0  0  0  0  0  0  0  0
   18.9901   10.5735   -7.3169 C   0  0  0  0  0  0  0  0  0  0  0  0
   20.5068   10.5787   -7.3181 C   0  0  0  0  0  0  0  0  0  0  0  0
   21.0169   11.7489   -8.1371 C   0  0  0  0  0  0  0  0  0  0  0  0
   22.5336   11.7529   -8.1398 C   0  0  0  0  0  0  0  0  0  0  0  0
   23.0437   12.9242   -8.9572 C   0  0  0  0  0  0  0  0  0  0  0  0
   24.5603   12.9292   -8.9583 C   0  0  0  0  0  0  0  0  0  0  0  0
   25.0703   14.1006   -9.7756 C   0  0  0  0  0  0  0  0  0  0  0  0
   26.5870   14.1045   -9.7783 C   0  0  0  0  0  0  0  0  0  0  0  0
   27.0970   15.2758  -10.5957 C   0  0  0  0  0  0  0  0  0  0  0  0
   28.6137   15.2797  -10.5984 C   0  0  0  0  0  0  0  0  0  0  0  0
   29.1237   16.4511  -11.4158 C   0  0  0  0  0  0  0  0  0  0  0  0
   30.6403   16.4550  -11.4185 C   0  0  0  0  0  0  0  0  0  0  0  0
   31.1503   17.6263  -12.2358 C   0  0  0  0  0  0  0  0  0  0  0  0
   32.6670   17.6302  -12.2386 C   0  0  0  0  0  0  0  0  0  0  0  0
   33.1770   18.8015  -13.0560 C   0  0  0  0  0  0  0  0  0  0  0  0
   34.6936   18.8043  -13.0603 C   0  0  0  0  0  0  0  0  0  0  0  0
   35.2037   19.9756  -13.8777 C   0  0  0  0  0  0  0  0  0  0  0  0
   36.7203   19.9795  -13.8804 C   0  0  0  0  0  0  0  0  0  0  0  0
   37.2303   21.1497  -14.6993 C   0  0  0  0  0  0  0  0  0  0  0  0
   38.7469   21.1547  -14.7005 C   0  0  0  0  0  0  0  0  0  0  0  0
   39.2568   22.3260  -15.5178 C   0  0  0  0  0  0  0  0  0  0  0  0
   40.7733   22.3298  -15.5204 C   0  0  0  0  0  0  0  0  0  0  0  0
   41.2830   23.5021  -16.3360 C   0  0  0  0  0  0  0  0  0  0  0  0
   42.7992   23.5056  -16.3384 C   0  0  0  0  0  0  0  0  0  0  0  0
   43.3081   24.6777  -17.1539 C   0  0  0  0  0  0  0  0  0  0  0  0
   44.8234   24.6803  -17.1557 C   0  0  0  0  0  0  0  0  0  0  0  0
   45.3298   25.8520  -17.9709 C   0  0  0  0  0  0  0  0  0  0  0  0
   46.8428   25.8523  -17.9711 C   0  0  0  0  0  0  0  0  0  0  0  0
   47.3437   27.0229  -18.7855 C   0  0  0  0  0  0  0  0  0  0  0  0
   48.8518   27.0159  -18.7806 C   0  0  0  0  0  0  0  0  0  0  0  0
   49.3451   28.1829  -19.5926 C   0  0  0  0  0  0  0  0  0  0  0  0
   50.8455   28.1584  -19.5732 C   0  0  0  0  0  0  0  0  0  0  0  0
   51.3219   29.3175  -20.3795 C   0  0  0  0  0  0  0  0  0  0  0  0
   52.8022   29.2870  -20.3534 C   0  0  0  0  0  0  0  0  0  0  0  0
   53.1214   30.3997  -21.1254 O   0  0  0  0  0  0  0  0  0  0  0  0
   54.5068   30.3619  -21.0953 O   0  0  0  0  0  0  0  0  0  0  0  0
   54.9614   31.4452  -21.8506 O   0  0  0  0  0  0  0  0  0  0  0  0
   56.3440   31.4007  -21.8203 O   0  0  0  0  0  0  0  0  0  0  0  0
   56.7767   32.4783  -22.5700 O   0  0  0  0  0  0  0  0  0  0  0  0
   58.1559   32.4424  -22.5451 O   0  0  0  0  0  0  0  0  0  0  0  0
   58.5886   33.5151  -23.2917 O   0  0  0  0  0  0  0  0  0  0  0  0
   59.9650   33.4792  -23.2668 O   0  0  0  0  0  0  0  0  0  0  0  0
   60.3863   34.5529  -24.0140 O   0  0  0  0  0  0  0  0  0  0  0  0
   61.7488   34.5107  -23.9847 O   0  0  0  0  0  0  0  0  0  0  0  0
   62.1542   35.5964  -24.7403 O   0  0  0  0  0  0  0  0  0  0  0  0
   63.5242   35.5659  -24.7192 O   0  0  0  0  0  0  0  0  0  0  0  0
   63.9313   36.6440  -25.4695 O   0  0  0  0  0  0  0  0  0  0  0  0
   65.3033   36.5953  -25.4357 O   0  0  0  0  0  0  0  0  0  0  0  0
   65.7118   37.6681  -26.1824 O   0  0  0  0  0  0  0  0  0  0  0  0
   67.0870   37.6187  -26.1481 O   0  0  0  0  0  0  0  0  0  0  0  0
   67.4987   38.6999  -26.9005 O   0  0  0  0  0  0  0  0  0  0  0  0
   68.8582   38.6700  -26.8798 O   0  0  0  0  0  0  0  0  0  0  0  0
   69.2549   39.7480  -27.6300 O   0  0  0  0  0  0  0  0  0  0  0  0
   70.6576   39.7226  -27.6125 O   0  0  0  0  0  0  0  0  0  0  0  0
   71.0627   40.7859  -28.3527 O   0  0  0  0  0  0  0  0  0  0  0  0
   72.4594   40.7521  -28.3288 O   0  0  0  0  0  0  0  0  0  0  0  0
   72.9126   41.8346  -29.0801 O   0  0  0  0  0  0  0  0  0  0  0  0
   74.2978   41.8161  -29.0730 O   0  0  0  0  0  0  0  0  0  0  0  0
   74.7468   42.9164  -29.8420 O   0  0  0  0  0  0  0  0  0  0  0  0
   76.1441   42.9445  -29.7931 O   0  0  0  0  0  0  0  0  0  0  0  0
   76.6109   44.0552  -30.5788 O   0  0  0  0  0  0  0  0  0  0  0  0
   78.0265   44.0113  -30.6204 O   0  0  0  0  0  0  0  0  0  0  0  0
   78.4717   42.7561  -31.1902 O   0  0  0  0  0  0  0  0  0  0  0  0
    0.5929   -0.7130    0.5688 H   0  0  0  0  0  0  0  0  0  0  0  0
    2.6555   -0.9244   -0.3649 H   0  0  0  0  0  0  0  0  0  0  0  0
    2.6484    0.0998    1.0939 H   0  0  0  0  0  0  0  0  0  0  0  0
    2.4341    2.1347   -0.3536 H   0  0  0  0  0  0  0  0  0  0  0  0
    2.4389    1.1292   -1.7876 H   0  0  0  0  0  0  0  0  0  0  0  0
    4.7294    0.2754   -1.1898 H   0  0  0  0  0  0  0  0  0  0  0  0
    4.7248    1.2890    0.2557 H   0  0  0  0  0  0  0  0  0  0  0  0
    4.4910    3.3290   -1.1760 H   0  0  0  0  0  0  0  0  0  0  0  0
    4.4958    2.3149   -2.6211 H   0  0  0  0  0  0  0  0  0  0  0  0
    6.7700    1.4579   -2.0129 H   0  0  0  0  0  0  0  0  0  0  0  0
    6.7671    2.4754   -0.5683 H   0  0  0  0  0  0  0  0  0  0  0  0
    6.5171    4.5114   -1.9910 H   0  0  0  0  0  0  0  0  0  0  0  0
    6.5153    3.4954   -3.4476 H   0  0  0  0  0  0  0  0  0  0  0  0
    8.6953    2.7012   -2.8095 H   0  0  0  0  0  0  0  0  0  0  0  0
    8.4773    5.6450   -2.7853 H   0  0  0  0  0  0  0  0  0  0  0  0
    8.4760    4.6298   -4.2419 H   0  0  0  0  0  0  0  0  0  0  0  0
   10.7401    3.7556   -3.6180 H   0  0  0  0  0  0  0  0  0  0  0  0
   10.7335    4.7737   -2.1734 H   0  0  0  0  0  0  0  0  0  0  0  0
   10.5008    6.8108   -3.6114 H   0  0  0  0  0  0  0  0  0  0  0  0
   10.5037    5.7938   -5.0544 H   0  0  0  0  0  0  0  0  0  0  0  0
   12.7737    4.9356   -4.4470 H   0  0  0  0  0  0  0  0  0  0  0  0
   12.7712    5.9510   -3.0018 H   0  0  0  0  0  0  0  0  0  0  0  0
   12.5285    7.9897   -4.4360 H   0  0  0  0  0  0  0  0  0  0  0  0
   12.5331    6.9736   -5.8802 H   0  0  0  0  0  0  0  0  0  0  0  0
   14.8026    6.1134   -5.2679 H   0  0  0  0  0  0  0  0  0  0  0  0
   14.7981    7.1295   -3.8235 H   0  0  0  0  0  0  0  0  0  0  0  0
   14.5587    9.1670   -5.2566 H   0  0  0  0  0  0  0  0  0  0  0  0
   14.5611    8.1516   -6.7015 H   0  0  0  0  0  0  0  0  0  0  0  0
   16.8298    7.2873   -6.0895 H   0  0  0  0  0  0  0  0  0  0  0  0
   16.8271    8.3046   -4.6459 H   0  0  0  0  0  0  0  0  0  0  0  0
   16.5851   10.3408   -6.0822 H   0  0  0  0  0  0  0  0  0  0  0  0
   16.5897    9.3227   -7.5253 H   0  0  0  0  0  0  0  0  0  0  0  0
   18.8581    8.4623   -6.9119 H   0  0  0  0  0  0  0  0  0  0  0  0
   18.8535    9.4785   -5.4675 H   0  0  0  0  0  0  0  0  0  0  0  0
   18.6131   11.5158   -6.9004 H   0  0  0  0  0  0  0  0  0  0  0  0
   18.6156   10.5004   -8.3454 H   0  0  0  0  0  0  0  0  0  0  0  0
   20.8838    9.6370   -7.7359 H   0  0  0  0  0  0  0  0  0  0  0  0
   20.8815   10.6505   -6.2896 H   0  0  0  0  0  0  0  0  0  0  0  0
   20.6411   12.6906   -7.7184 H   0  0  0  0  0  0  0  0  0  0  0  0
   20.6413   11.6780   -9.1653 H   0  0  0  0  0  0  0  0  0  0  0  0
   22.9095   10.8117   -8.5598 H   0  0  0  0  0  0  0  0  0  0  0  0
   22.9094   11.8224   -7.1115 H   0  0  0  0  0  0  0  0  0  0  0  0
   22.6668   13.8653   -8.5380 H   0  0  0  0  0  0  0  0  0  0  0  0
   22.6690   12.8539   -9.9858 H   0  0  0  0  0  0  0  0  0  0  0  0
   24.9372   11.9882   -9.3775 H   0  0  0  0  0  0  0  0  0  0  0  0
   24.9350   12.9995   -7.9297 H   0  0  0  0  0  0  0  0  0  0  0  0
   24.6945   15.0417   -9.3556 H   0  0  0  0  0  0  0  0  0  0  0  0
   24.6946   14.0311  -10.8039 H   0  0  0  0  0  0  0  0  0  0  0  0
   26.9628   13.1634  -10.1984 H   0  0  0  0  0  0  0  0  0  0  0  0
   26.9628   14.1740   -8.7500 H   0  0  0  0  0  0  0  0  0  0  0  0
   26.7212   16.2170  -10.1757 H   0  0  0  0  0  0  0  0  0  0  0  0
   26.7212   15.2063  -11.6240 H   0  0  0  0  0  0  0  0  0  0  0  0
   28.9894   14.3386  -11.0185 H   0  0  0  0  0  0  0  0  0  0  0  0
   28.9894   15.3492   -9.5701 H   0  0  0  0  0  0  0  0  0  0  0  0
   28.7479   17.3922  -10.9957 H   0  0  0  0  0  0  0  0  0  0  0  0
   28.7479   16.3816  -12.4441 H   0  0  0  0  0  0  0  0  0  0  0  0
   31.0161   15.5138  -11.8385 H   0  0  0  0  0  0  0  0  0  0  0  0
   31.0161   16.5245  -10.3902 H   0  0  0  0  0  0  0  0  0  0  0  0
   30.7746   18.5675  -11.8158 H   0  0  0  0  0  0  0  0  0  0  0  0
   30.7745   17.5568  -13.2641 H   0  0  0  0  0  0  0  0  0  0  0  0
   33.0427   16.6890  -12.6586 H   0  0  0  0  0  0  0  0  0  0  0  0
   33.0428   17.6997  -11.2103 H   0  0  0  0  0  0  0  0  0  0  0  0
   32.8023   19.7427  -12.6351 H   0  0  0  0  0  0  0  0  0  0  0  0
   32.8001   18.7328  -14.0839 H   0  0  0  0  0  0  0  0  0  0  0  0
   35.0683   17.8631  -13.4812 H   0  0  0  0  0  0  0  0  0  0  0  0
   35.0705   18.8730  -12.0323 H   0  0  0  0  0  0  0  0  0  0  0  0
   34.8280   20.9168  -13.4577 H   0  0  0  0  0  0  0  0  0  0  0  0
   34.8278   19.9060  -14.9059 H   0  0  0  0  0  0  0  0  0  0  0  0
   37.0962   19.0378  -14.2992 H   0  0  0  0  0  0  0  0  0  0  0  0
   37.0960   20.0504  -12.8522 H   0  0  0  0  0  0  0  0  0  0  0  0
   36.8534   22.0913  -14.2814 H   0  0  0  0  0  0  0  0  0  0  0  0
   36.8557   21.0780  -15.7279 H   0  0  0  0  0  0  0  0  0  0  0  0
   39.1238   20.2136  -15.1196 H   0  0  0  0  0  0  0  0  0  0  0  0
   39.1216   21.2250  -13.6719 H   0  0  0  0  0  0  0  0  0  0  0  0
   38.8810   23.2671  -15.0977 H   0  0  0  0  0  0  0  0  0  0  0  0
   38.8812   22.2566  -16.5461 H   0  0  0  0  0  0  0  0  0  0  0  0
   41.1492   21.3893  -15.9418 H   0  0  0  0  0  0  0  0  0  0  0  0
   41.1493   22.3980  -14.4921 H   0  0  0  0  0  0  0  0  0  0  0  0
   40.9075   24.4428  -15.9148 H   0  0  0  0  0  0  0  0  0  0  0  0
   40.9074   23.4342  -17.3645 H   0  0  0  0  0  0  0  0  0  0  0  0
   43.1754   22.5653  -16.7600 H   0  0  0  0  0  0  0  0  0  0  0  0
   43.1754   23.5739  -15.3102 H   0  0  0  0  0  0  0  0  0  0  0  0
   42.9331   25.6187  -16.7328 H   0  0  0  0  0  0  0  0  0  0  0  0
   42.9330   24.6101  -18.1826 H   0  0  0  0  0  0  0  0  0  0  0  0
   45.2004   23.7405  -17.5777 H   0  0  0  0  0  0  0  0  0  0  0  0
   45.2005   24.7492  -16.1278 H   0  0  0  0  0  0  0  0  0  0  0  0
   44.9560   26.7936  -17.5501 H   0  0  0  0  0  0  0  0  0  0  0  0
   44.9560   25.7849  -19.0000 H   0  0  0  0  0  0  0  0  0  0  0  0
   47.2217   24.9136  -18.3939 H   0  0  0  0  0  0  0  0  0  0  0  0
   47.2217   25.9224  -16.9439 H   0  0  0  0  0  0  0  0  0  0  0  0
   46.9730   27.9661  -18.3655 H   0  0  0  0  0  0  0  0  0  0  0  0
   46.9730   26.9571  -19.8159 H   0  0  0  0  0  0  0  0  0  0  0  0
   49.2333   26.0788  -19.2050 H   0  0  0  0  0  0  0  0  0  0  0  0
   49.2331   27.0880  -17.7544 H   0  0  0  0  0  0  0  0  0  0  0  0
   48.9796   29.1298  -19.1756 H   0  0  0  0  0  0  0  0  0  0  0  0
   48.9818   28.1198  -20.6261 H   0  0  0  0  0  0  0  0  0  0  0  0
   51.2302   27.2235  -19.9994 H   0  0  0  0  0  0  0  0  0  0  0  0
   51.2276   28.2345  -18.5475 H   0  0  0  0  0  0  0  0  0  0  0  0
   50.9651   30.2763  -19.9793 H   0  0  0  0  0  0  0  0  0  0  0  0
   50.9697   29.2728  -21.4191 H   0  0  0  0  0  0  0  0  0  0  0  0
   53.2186   28.3823  -20.8137 H   0  0  0  0  0  0  0  0  0  0  0  0
   53.2139   29.4043  -19.3432 H   0  0  0  0  0  0  0  0  0  0  0  0
   79.4075   42.9257  -31.0489 H   0  0  0  0  0  0  0  0  0  0  0  0
  1  2  1  0  0  0  0
  1 82  1  0  0  0  0
  2  3  1  0  0  0  0
  2 83  1  0  0  0  0
  2 84  1  0  0  0  0
  3  4  1  0  0  0  0
  3 85  1  0  0  0  0
  3 86  1  0  0  0  0
  4  5  1  0  0  0  0
  4 87  1  0  0  0  0
  4 88  1  0  0  0  0
  5  6  1  0  0  0  0
  5 89  1  0  0  0  0
  5 90  1  0  0  0  0
  6  7  1  0  0  0  0
  6 91  1  0  0  0  0
  6 92  1  0  0  0  0
  7  8  1  0  0  0  0
  7 93  1  0  0  0  0
  7 94  1  0  0  0  0
  8  9  1  0  0  0  0
  8 95  1  0  0  0  0
  9 10  1  0  0  0  0
  9 96  1  0  0  0  0
  9 97  1  0  0  0  0
 10 11  1  0  0  0  0
 10 98  1  0  0  0  0
 10 99  1  0  0  0  0
 11 12  1  0  0  0  0
 11100  1  0  0  0  0
 11101  1  0  0  0  0
 12 13  1  0  0  0  0
 12102  1  0  0  0  0
 12103  1  0  0  0  0
 13 14  1  0  0  0  0
 13104  1  0  0  0  0
 13105  1  0  0  0  0
 14 15  1  0  0  0  0
 14106  1  0  0  0  0
 14107  1  0  0  0  0
 15 16  1  0  0  0  0
 15108  1  0  0  0  0
 15109  1  0  0  0  0
 16 17  1  0  0  0  0
 16110  1  0  0  0  0
 16111  1  0  0  0  0
 17 18  1  0  0  0  0
 17112  1  0  0  0  0
 17113  1  0  0  0  0
 18 19  1  0  0  0  0
 18114  1  0  0  0  0
 18115  1  0  0  0  0
 19 20  1  0  0  0  0
 19116  1  0  0  0  0
 19117  1  0  0  0  0
 20 21  1  0  0  0  0
 20118  1  0  0  0  0
 20119  1  0  0  0  0
 21 22  1  0  0  0  0
 21120  1  0  0  0  0
 21121  1  0  0  0  0
 22 23  1  0  0  0  0
 22122  1  0  0  0  0
 22123  1  0  0  0  0
 23 24  1  0  0  0  0
 23124  1  0  0  0  0
 23125  1  0  0  0  0
 24 25  1  0  0  0  0
 24126  1  0  0  0  0
 24127  1  0  0  0  0
 25 26  1  0  0  0  0
 25128  1  0  0  0  0
 25129  1  0  0  0  0
 26 27  1  0  0  0  0
 26130  1  0  0  0  0
 26131  1  0  0  0  0
 27 28  1  0  0  0  0
 27132  1  0  0  0  0
 27133  1  0  0  0  0
 28 29  1  0  0  0  0
 28134  1  0  0  0  0
 28135  1  0  0  0  0
 29 30  1  0  0  0  0
 29136  1  0  0  0  0
 29137  1  0  0  0  0
 30 31  1  0  0  0  0
 30138  1  0  0  0  0
 30139  1  0  0  0  0
 31 32  1  0  0  0  0
 31140  1  0  0  0  0
 31141  1  0  0  0  0
 32 33  1  0  0  0  0
 32142  1  0  0  0  0
 32143  1  0  0  0  0
 33 34  1  0  0  0  0
 33144  1  0  0  0  0
 33145  1  0  0  0  0
 34 35  1  0  0  0  0
 34146  1  0  0  0  0
 34147  1  0  0  0  0
 35 36  1  0  0  0  0
 35148  1  0  0  0  0
 35149  1  0  0  0  0
 36 37  1  0  0  0  0
 36150  1  0  0  0  0
 36151  1  0  0  0  0
 37 38  1  0  0  0  0
 37152  1  0  0  0  0
 37153  1  0  0  0  0
 38 39  1  0  0  0  0
 38154  1  0  0  0  0
 38155  1  0  0  0  0
 39 40  1  0  0  0  0
 39156  1  0  0  0  0
 39157  1  0  0  0  0
 40 41  1  0  0  0  0
 40158  1  0  0  0  0
 40159  1  0  0  0  0
 41 42  1  0  0  0  0
 41160  1  0  0  0  0
 41161  1  0  0  0  0
 42 43  1  0  0  0  0
 42162  1  0  0  0  0
 42163  1  0  0  0  0
 43 44  1  0  0  0  0
 43164  1  0  0  0  0
 43165  1  0  0  0  0
 44 45  1  0  0  0  0
 44166  1  0  0  0  0
 44167  1  0  0  0  0
 45 46  1  0  0  0  0
 45168  1  0  0  0  0
 45169  1  0  0  0  0
 46 47  1  0  0  0  0
 46170  1  0  0  0  0
 46171  1  0  0  0  0
 47 48  1  0  0  0  0
 47172  1  0  0  0  0
 47173  1  0  0  0  0
 48 49  1  0  0  0  0
 48174  1  0  0  0  0
 48175  1  0  0  0  0
 49 50  1  0  0  0  0
 49176  1  0  0  0  0
 49177  1  0  0  0  0
 50 51  1  0  0  0  0
 50178  1  0  0  0  0
 50179  1  0  0  0  0
 51 52  1  0  0  0  0
 51180  1  0  0  0  0
 51181  1  0  0  0  0
 52 53  1  0  0  0  0
 52182  1  0  0  0  0
 52183  1  0  0  0  0
 53 54  1  0  0  0  0
 54 55  1  0  0  0  0
 55 56  1  0  0  0  0
 56 57  1  0  0  0  0
 57 58  1  0  0  0  0
 58 59  1  0  0  0  0
 59 60  1  0  0  0  0
 60 61  1  0  0  0  0
 61 62  1  0  0  0  0
 62 63  1  0  0  0  0
 63 64  1  0  0  0  0
 64 65  1  0  0  0  0
 65 66  1  0  0  0  0
 66 67  1  0  0  0  0
 67 68  1  0  0  0  0
 68 69  1  0  0  0  0
 69 70  1  0  0  0  0
 70 71  1  0  0  0  0
 71 72  1  0  0  0  0
 72 73  1  0  0  0  0
 73 74  1  0  0  0  0
 74 75  1  0  0  0  0
 75 76  1  0  0  0  0
 76 77  1  0  0  0  0
 77 78  1  0  0  0  0
 78 79  1  0  0  0  0
 79 80  1  0  0  0  0
 80 81  1  0  0  0  0
 81184  1  0  0  0  0
M  END
$$$$
