
 OpenBabel04232216493D

 52 53  0  0  1  0  0  0  0  0999 V2000
    0.9706   -0.0053    0.4039 C   0  0  0  0  0  0  0  0  0  0  0  0
    2.4045   -0.0536   -0.1490 C   0  0  3  0  0  0  0  0  0  0  0  0
    2.6692   -1.2803   -1.0721 C   0  0  0  0  0  0  0  0  0  0  0  0
    1.4853   -2.0370   -1.7097 C   0  0  0  0  0  0  0  0  0  0  0  0
    1.1547   -1.7067   -3.1734 C   0  0  0  0  0  0  0  0  0  0  0  0
    0.5028   -0.3406   -3.4112 C   0  0  0  0  0  0  0  0  0  0  0  0
    1.5544    0.7497   -3.5537 C   0  0  0  0  0  0  0  0  0  0  0  0
    1.0281    2.1653   -3.3566 C   0  0  0  0  0  0  0  0  0  0  0  0
    1.8062    3.0241   -2.3505 C   0  0  0  0  0  0  0  0  0  0  0  0
    1.9527    2.4620   -0.9340 C   0  0  0  0  0  0  0  0  0  0  0  0
    2.9973    1.3514   -0.5846 C   0  0  3  0  0  0  0  0  0  0  0  0
    4.2741    1.3160   -1.4832 C   0  0  0  0  0  0  0  0  0  0  0  0
    4.2696    1.5508   -2.6928 O   0  0  0  0  0  0  0  0  0  0  0  0
    5.6041    1.0169   -0.9109 C   0  0  0  0  0  0  0  0  0  0  0  0
    5.9555    0.8764    0.3772 C   0  0  0  0  0  0  0  0  0  0  0  0
    7.3989    0.7549    0.4511 C   0  0  0  0  0  0  0  0  0  0  0  0
    7.9170    0.7870   -0.7842 C   0  0  0  0  0  0  0  0  0  0  0  0
    9.3700    0.8189   -1.0603 C   0  0  0  0  0  0  0  0  0  0  0  0
   10.1470    1.1615   -0.1706 O   0  0  0  0  0  0  0  0  0  0  0  0
    9.8418    0.3882   -2.4364 C   0  0  0  0  0  0  0  0  0  0  0  0
   11.3517    0.5031   -2.5857 C   0  0  0  0  0  0  0  0  0  0  0  0
    6.8224    0.9123   -1.7998 C   0  0  0  0  0  0  0  0  0  0  0  0
    0.7078   -0.9468    0.8989 H   0  0  0  0  0  0  0  0  0  0  0  0
    0.2311    0.1720   -0.3826 H   0  0  0  0  0  0  0  0  0  0  0  0
    0.8606    0.7825    1.1571 H   0  0  0  0  0  0  0  0  0  0  0  0
    3.0032   -0.2908    0.7464 H   0  0  0  0  0  0  0  0  0  0  0  0
    3.1486   -2.0225   -0.4134 H   0  0  0  0  0  0  0  0  0  0  0  0
    3.4333   -1.0752   -1.8255 H   0  0  0  0  0  0  0  0  0  0  0  0
    0.5771   -1.9949   -1.1020 H   0  0  0  0  0  0  0  0  0  0  0  0
    1.7658   -3.1008   -1.7056 H   0  0  0  0  0  0  0  0  0  0  0  0
    0.4508   -2.4725   -3.5234 H   0  0  0  0  0  0  0  0  0  0  0  0
    2.0562   -1.8175   -3.7885 H   0  0  0  0  0  0  0  0  0  0  0  0
   -0.1991   -0.1180   -2.6016 H   0  0  0  0  0  0  0  0  0  0  0  0
   -0.0800   -0.3754   -4.3388 H   0  0  0  0  0  0  0  0  0  0  0  0
    2.0441    0.6677   -4.5316 H   0  0  0  0  0  0  0  0  0  0  0  0
    2.3185    0.5318   -2.8327 H   0  0  0  0  0  0  0  0  0  0  0  0
   -0.0279    2.1511   -3.0656 H   0  0  0  0  0  0  0  0  0  0  0  0
    1.0673    2.6833   -4.3237 H   0  0  0  0  0  0  0  0  0  0  0  0
    1.2389    3.9622   -2.2536 H   0  0  0  0  0  0  0  0  0  0  0  0
    2.7731    3.3380   -2.7527 H   0  0  0  0  0  0  0  0  0  0  0  0
    0.9505    2.2033   -0.5837 H   0  0  0  0  0  0  0  0  0  0  0  0
    2.2234    3.3256   -0.3058 H   0  0  0  0  0  0  0  0  0  0  0  0
    3.3852    1.7427    0.3702 H   0  0  0  0  0  0  0  0  0  0  0  0
    5.3272    0.9399    1.2446 H   0  0  0  0  0  0  0  0  0  0  0  0
    7.9593    0.7319    1.3783 H   0  0  0  0  0  0  0  0  0  0  0  0
    9.3601    1.0146   -3.1944 H   0  0  0  0  0  0  0  0  0  0  0  0
    9.5432   -0.6543   -2.5920 H   0  0  0  0  0  0  0  0  0  0  0  0
   11.6802    1.5417   -2.4678 H   0  0  0  0  0  0  0  0  0  0  0  0
   11.6677    0.1561   -3.5743 H   0  0  0  0  0  0  0  0  0  0  0  0
   11.8718   -0.0980   -1.8317 H   0  0  0  0  0  0  0  0  0  0  0  0
    6.7755    0.0250   -2.4441 H   0  0  0  0  0  0  0  0  0  0  0  0
    6.9484    1.8103   -2.4142 H   0  0  0  0  0  0  0  0  0  0  0  0
  1  2  1  0  0  0  0
  1 23  1  0  0  0  0
  1 24  1  0  0  0  0
  1 25  1  0  0  0  0
  2  3  1  0  0  0  0
  2 11  1  0  0  0  0
  2 26  1  0  0  0  0
  3  4  1  0  0  0  0
  3 27  1  0  0  0  0
  3 28  1  0  0  0  0
  4  5  1  0  0  0  0
  4 29  1  0  0  0  0
  4 30  1  0  0  0  0
  5  6  1  0  0  0  0
  5 31  1  0  0  0  0
  5 32  1  0  0  0  0
  6  7  1  0  0  0  0
  6 33  1  0  0  0  0
  6 34  1  0  0  0  0
  7  8  1  0  0  0  0
  7 35  1  0  0  0  0
  7 36  1  0  0  0  0
  8  9  1  0  0  0  0
  8 37  1  0  0  0  0
  8 38  1  0  0  0  0
  9 10  1  0  0  0  0
  9 39  1  0  0  0  0
  9 40  1  0  0  0  0
 10 11  1  0  0  0  0
 10 41  1  0  0  0  0
 10 42  1  0  0  0  0
 11 12  1  0  0  0  0
 11 43  1  0  0  0  0
 12 13  2  0  0  0  0
 12 14  1  0  0  0  0
 14 15  2  0  0  0  0
 14 22  1  0  0  0  0
 15 16  1  0  0  0  0
 15 44  1  0  0  0  0
 16 17  2  0  0  0  0
 16 45  1  0  0  0  0
 17 18  1  0  0  0  0
 17 22  1  0  0  0  0
 18 19  2  0  0  0  0
 18 20  1  0  0  0  0
 20 21  1  0  0  0  0
 20 46  1  0  0  0  0
 20 47  1  0  0  0  0
 21 48  1  0  0  0  0
 21 49  1  0  0  0  0
 21 50  1  0  0  0  0
 22 51  1  0  0  0  0
 22 52  1  0  0  0  0
M  END
$$$$
