
 OpenBabel04232216463D

 25 25  0  0  0  0  0  0  0  0999 V2000
    2.5407    0.2328    5.7581 C   0  0  0  0  0  0  0  0  0  0  0  0
    3.4626   -0.1684    4.6920 C   0  0  0  0  0  0  0  0  0  0  0  0
    3.2097   -0.9014    3.4863 C   0  0  0  0  0  0  0  0  0  0  0  0
    4.5251   -0.7764    3.2221 C   0  0  0  0  0  0  0  0  0  0  0  0
    5.3880   -1.2531    2.0673 C   0  0  0  0  0  0  0  0  0  0  0  0
    6.8791   -0.9824    2.0482 C   0  0  0  0  0  0  0  0  0  0  0  0
    7.6457   -1.6974    3.1608 C   0  0  0  0  0  0  0  0  0  0  0  0
    9.1603   -1.5979    2.9545 C   0  0  0  0  0  0  0  0  0  0  0  0
    9.9149   -2.2784    4.0862 C   0  0  0  0  0  0  0  0  0  0  0  0
    4.7170   -0.0498    4.4285 N   0  0  0  0  0  0  0  0  0  0  0  0
    1.5281   -0.1117    5.5243 H   0  0  0  0  0  0  0  0  0  0  0  0
    2.5282    1.3210    5.8564 H   0  0  0  0  0  0  0  0  0  0  0  0
    2.8520   -0.2096    6.7074 H   0  0  0  0  0  0  0  0  0  0  0  0
    2.3760   -1.3632    2.9763 H   0  0  0  0  0  0  0  0  0  0  0  0
    4.9341   -0.8408    1.1543 H   0  0  0  0  0  0  0  0  0  0  0  0
    5.1868   -2.3251    1.9336 H   0  0  0  0  0  0  0  0  0  0  0  0
    7.0786    0.0945    2.0842 H   0  0  0  0  0  0  0  0  0  0  0  0
    7.2610   -1.3384    1.0813 H   0  0  0  0  0  0  0  0  0  0  0  0
    7.3574   -2.7551    3.1883 H   0  0  0  0  0  0  0  0  0  0  0  0
    7.3797   -1.2605    4.1294 H   0  0  0  0  0  0  0  0  0  0  0  0
    9.4657   -0.5468    2.8966 H   0  0  0  0  0  0  0  0  0  0  0  0
    9.4413   -2.0686    2.0044 H   0  0  0  0  0  0  0  0  0  0  0  0
    9.6742   -1.8161    5.0487 H   0  0  0  0  0  0  0  0  0  0  0  0
   10.9952   -2.1962    3.9303 H   0  0  0  0  0  0  0  0  0  0  0  0
    9.6602   -3.3417    4.1426 H   0  0  0  0  0  0  0  0  0  0  0  0
  1  2  1  0  0  0  0
  1 11  1  0  0  0  0
  1 12  1  0  0  0  0
  1 13  1  0  0  0  0
  2  3  1  0  0  0  0
  2 10  2  0  0  0  0
  3  4  2  0  0  0  0
  3 14  1  0  0  0  0
  4  5  1  0  0  0  0
  4 10  1  0  0  0  0
  5  6  1  0  0  0  0
  5 15  1  0  0  0  0
  5 16  1  0  0  0  0
  6  7  1  0  0  0  0
  6 17  1  0  0  0  0
  6 18  1  0  0  0  0
  7  8  1  0  0  0  0
  7 19  1  0  0  0  0
  7 20  1  0  0  0  0
  8  9  1  0  0  0  0
  8 21  1  0  0  0  0
  8 22  1  0  0  0  0
  9 23  1  0  0  0  0
  9 24  1  0  0  0  0
  9 25  1  0  0  0  0
M  END
$$$$
