
 OpenBabel04232216553D

137136  0  0  0  0  0  0  0  0999 V2000
   39.5325  -31.3369   29.6920 C   0  0  0  0  0  0  0  0  0  0  0  0
   38.9006  -30.6032   28.5266 C   0  0  0  0  0  0  0  0  0  0  0  0
   39.5651  -29.2483   28.3162 C   0  0  0  0  0  0  0  0  0  0  0  0
   38.9160  -28.5337   27.1409 C   0  0  0  0  0  0  0  0  0  0  0  0
   39.5305  -27.2297   26.9819 N   0  0  0  0  0  0  0  0  0  0  0  0
   38.9771  -26.6571   25.8199 N   0  0  0  0  0  0  0  0  0  0  0  0
   39.6831  -25.4771   25.5428 N   0  0  0  0  0  0  0  0  0  0  0  0
   39.0251  -24.6325   24.6265 N   0  0  0  0  0  0  0  0  0  0  0  0
   37.6914  -24.2662   24.9226 N   0  0  0  0  0  0  0  0  0  0  0  0
   37.4689  -23.3741   26.0069 N   0  0  0  0  0  0  0  0  0  0  0  0
   37.9500  -22.0301   25.8399 N   0  0  0  0  0  0  0  0  0  0  0  0
   37.3632  -21.3866   24.7231 N   0  0  0  0  0  0  0  0  0  0  0  0
   35.9536  -21.3601   24.9857 N   0  0  0  0  0  0  0  0  0  0  0  0
   35.7057  -20.8606   26.3247 N   0  0  0  0  0  0  0  0  0  0  0  0
   36.2074  -19.5369   26.4920 N   0  0  0  0  0  0  0  0  0  0  0  0
   35.6758  -18.6170   25.5164 N   0  0  0  0  0  0  0  0  0  0  0  0
   34.2665  -18.3554   25.7035 N   0  0  0  0  0  0  0  0  0  0  0  0
   34.1289  -17.6921   26.9880 N   0  0  0  0  0  0  0  0  0  0  0  0
   34.7038  -16.3745   26.8883 N   0  0  0  0  0  0  0  0  0  0  0  0
   34.6256  -15.5124   28.2906 S   0  0  0  0  0  0  0  0  0  0  0  0
   35.2312  -16.4869   29.4865 N   0  0  0  0  0  0  0  0  0  0  0  0
   36.8332  -16.8427   29.3561 S   0  0  0  0  0  0  0  0  0  0  0  0
   37.6091  -15.4023   29.4108 N   0  0  0  0  0  0  0  0  0  0  0  0
   39.2424  -15.5717   29.3413 S   0  0  0  0  0  0  0  0  0  0  0  0
   39.5508  -16.2946   27.8887 N   0  0  0  0  0  0  0  0  0  0  0  0
   39.5621  -15.2098   26.6547 S   0  0  0  0  0  0  0  0  0  0  0  0
   40.0952  -16.0967   25.3683 N   0  0  0  0  0  0  0  0  0  0  0  0
   39.0490  -17.2271   24.7920 S   0  0  0  0  0  0  0  0  0  0  0  0
   37.5432  -16.5947   24.9497 N   0  0  0  0  0  0  0  0  0  0  0  0
   36.8178  -16.0183   23.6091 S   0  0  0  0  0  0  0  0  0  0  0  0
   37.1549  -17.0037   22.3341 N   0  0  0  0  0  0  0  0  0  0  0  0
   36.7795  -16.2602   20.8918 S   0  0  0  0  0  0  0  0  0  0  0  0
   37.3170  -14.6769   20.9349 N   0  0  0  0  0  0  0  0  0  0  0  0
   38.9615  -14.5837   20.9515 S   0  0  0  0  0  0  0  0  0  0  0  0
   39.2777  -12.9710   21.0368 N   0  0  0  0  0  0  0  0  0  0  0  0
   38.7477  -12.2005   22.4013 S   0  0  0  0  0  0  0  0  0  0  0  0
   39.4596  -12.9131   23.7075 N   0  0  0  0  0  0  0  0  0  0  0  0
   41.1166  -12.8017   23.7475 S   0  0  0  0  0  0  0  0  0  0  0  0
   41.5549  -11.2136   23.6178 N   0  0  0  0  0  0  0  0  0  0  0  0
   41.0890  -10.3403   24.9420 S   0  0  0  0  0  0  0  0  0  0  0  0
   41.8785   -8.8916   24.8540 N   0  0  0  0  0  0  0  0  0  0  0  0
   41.5423   -7.9899   23.4855 S   0  0  0  0  0  0  0  0  0  0  0  0
   39.8983   -7.8404   23.3125 N   0  0  0  0  0  0  0  0  0  0  0  0
   39.4438   -6.9370   22.0090 S   0  0  0  0  0  0  0  0  0  0  0  0
   39.8630   -7.6824   20.6056 N   0  0  0  0  0  0  0  0  0  0  0  0
   39.2823   -9.1923   20.3307 S   0  0  0  0  0  0  0  0  0  0  0  0
   37.6341   -9.1331   20.2175 N   0  0  0  0  0  0  0  0  0  0  0  0
   37.0581   -8.0444   19.0948 S   0  0  0  0  0  0  0  0  0  0  0  0
   37.6055   -8.5324   17.6113 N   0  0  0  0  0  0  0  0  0  0  0  0
   36.8273   -7.7702   16.3609 S   0  0  0  0  0  0  0  0  0  0  0  0
   37.3039   -6.1983   16.3847 N   0  0  0  0  0  0  0  0  0  0  0  0
   36.6236   -5.3092   15.1851 S   0  0  0  0  0  0  0  0  0  0  0  0
   37.4367   -3.8695   15.2304 N   0  0  0  0  0  0  0  0  0  0  0  0
   37.0246   -2.9137   16.5203 S   0  0  0  0  0  0  0  0  0  0  0  0
   37.5550   -3.6989   17.8828 N   0  0  0  0  0  0  0  0  0  0  0  0
   39.1940   -3.7511   18.0693 S   0  0  0  0  0  0  0  0  0  0  0  0
   39.7551   -2.2321   18.1253 N   0  0  0  0  0  0  0  0  0  0  0  0
   39.5533   -1.4424   19.5451 S   0  0  0  0  0  0  0  0  0  0  0  0
   40.1135    0.0736   19.1915 N   0  0  0  0  0  0  0  0  0  0  0  0
   41.7592    0.2047   19.3300 S   0  0  0  0  0  0  0  0  0  0  0  0
   42.4073   -0.5596   18.0045 N   0  0  0  0  0  0  0  0  0  0  0  0
   42.0481    0.1971   16.5635 S   0  0  0  0  0  0  0  0  0  0  0  0
   42.6622    1.7206   16.5157 N   0  0  0  0  0  0  0  0  0  0  0  0
   44.2987    1.7829   16.3690 S   0  0  0  0  0  0  0  0  0  0  0  0
   44.6883    3.3823   16.5253 N   0  0  0  0  0  0  0  0  0  0  0  0
   44.4192    4.2729   15.1530 S   0  0  0  0  0  0  0  0  0  0  0  0
   42.7843    4.3968   14.9176 N   0  0  0  0  0  0  0  0  0  0  0  0
   41.9547    5.3133   16.0119 S   0  0  0  0  0  0  0  0  0  0  0  0
   42.5722    6.8383   16.0573 N   0  0  0  0  0  0  0  0  0  0  0  0
   42.3482    7.7726   14.7178 S   0  0  0  0  0  0  0  0  0  0  0  0
   40.7404    7.7909   14.3471 N   0  0  0  0  0  0  0  0  0  0  0  0
   39.7563    8.6048   15.3954 S   0  0  0  0  0  0  0  0  0  0  0  0
   40.3417   10.1286   15.6297 N   0  0  0  0  0  0  0  0  0  0  0  0
   40.1503   11.1874   14.3714 S   0  0  0  0  0  0  0  0  0  0  0  0
   38.5655   11.1756   13.8886 N   0  0  0  0  0  0  0  0  0  0  0  0
   37.5484   11.8249   15.0268 S   0  0  0  0  0  0  0  0  0  0  0  0
   36.0527   11.9590   14.3357 N   0  0  0  0  0  0  0  0  0  0  0  0
   35.3992   10.5069   13.8843 S   0  0  0  0  0  0  0  0  0  0  0  0
   33.8076   10.7831   13.5090 N   0  0  0  0  0  0  0  0  0  0  0  0
   33.6348   11.6787   12.1310 S   0  0  0  0  0  0  0  0  0  0  0  0
   32.0485   11.5600   11.6548 N   0  0  0  0  0  0  0  0  0  0  0  0
   39.0519  -32.3091   29.8298 H   0  0  0  0  0  0  0  0  0  0  0  0
   39.4220  -30.7629   30.6173 H   0  0  0  0  0  0  0  0  0  0  0  0
   40.5998  -31.5013   29.5138 H   0  0  0  0  0  0  0  0  0  0  0  0
   37.8295  -30.4665   28.7166 H   0  0  0  0  0  0  0  0  0  0  0  0
   38.9940  -31.2079   27.6169 H   0  0  0  0  0  0  0  0  0  0  0  0
   40.6373  -29.3813   28.1261 H   0  0  0  0  0  0  0  0  0  0  0  0
   39.4680  -28.6396   29.2242 H   0  0  0  0  0  0  0  0  0  0  0  0
   37.8426  -28.4126   27.3370 H   0  0  0  0  0  0  0  0  0  0  0  0
   39.0280  -29.1370   26.2310 H   0  0  0  0  0  0  0  0  0  0  0  0
   40.5342  -27.2929   26.8448 H   0  0  0  0  0  0  0  0  0  0  0  0
   38.0046  -26.4274   26.0234 H   0  0  0  0  0  0  0  0  0  0  0  0
   40.6542  -25.6796   25.2784 H   0  0  0  0  0  0  0  0  0  0  0  0
   39.0633  -24.9132   23.6516 H   0  0  0  0  0  0  0  0  0  0  0  0
   36.9811  -24.9910   24.7641 H   0  0  0  0  0  0  0  0  0  0  0  0
   37.7929  -23.7284   26.9002 H   0  0  0  0  0  0  0  0  0  0  0  0
   38.9533  -21.9641   25.7711 H   0  0  0  0  0  0  0  0  0  0  0  0
   37.5626  -21.9984   23.9197 H   0  0  0  0  0  0  0  0  0  0  0  0
   35.6932  -22.3360   25.0833 H   0  0  0  0  0  0  0  0  0  0  0  0
   36.2311  -21.5109   26.9431 H   0  0  0  0  0  0  0  0  0  0  0  0
   37.2244  -19.5757   26.3896 H   0  0  0  0  0  0  0  0  0  0  0  0
   35.8436  -19.0003   24.5893 H   0  0  0  0  0  0  0  0  0  0  0  0
   33.8167  -19.2803   25.7163 H   0  0  0  0  0  0  0  0  0  0  0  0
   34.8128  -18.1970   27.5683 H   0  0  0  0  0  0  0  0  0  0  0  0
   34.3087  -15.8500   26.1122 H   0  0  0  0  0  0  0  0  0  0  0  0
   34.7611  -17.3758   29.3445 H   0  0  0  0  0  0  0  0  0  0  0  0
   37.3024  -14.8909   30.2339 H   0  0  0  0  0  0  0  0  0  0  0  0
   38.8403  -17.0041   27.6786 H   0  0  0  0  0  0  0  0  0  0  0  0
   40.9961  -16.4975   25.5893 H   0  0  0  0  0  0  0  0  0  0  0  0
   36.9206  -17.2388   25.4502 H   0  0  0  0  0  0  0  0  0  0  0  0
   36.7118  -17.9196   22.4395 H   0  0  0  0  0  0  0  0  0  0  0  0
   36.9761  -14.2189   21.7817 H   0  0  0  0  0  0  0  0  0  0  0  0
   38.8480  -12.5030   20.2425 H   0  0  0  0  0  0  0  0  0  0  0  0
   39.1665  -13.8887   23.7171 H   0  0  0  0  0  0  0  0  0  0  0  0
   41.1536  -10.8160   22.7623 H   0  0  0  0  0  0  0  0  0  0  0  0
   42.8804   -9.0787   24.8983 H   0  0  0  0  0  0  0  0  0  0  0  0
   39.4914   -7.4116   24.1355 H   0  0  0  0  0  0  0  0  0  0  0  0
   40.8612   -7.6497   20.4371 H   0  0  0  0  0  0  0  0  0  0  0  0
   37.2796   -8.8758   21.1364 H   0  0  0  0  0  0  0  0  0  0  0  0
   37.4550   -9.5331   17.5383 H   0  0  0  0  0  0  0  0  0  0  0  0
   38.3120   -6.0576   16.4513 H   0  0  0  0  0  0  0  0  0  0  0  0
   37.2408   -3.3584   14.3729 H   0  0  0  0  0  0  0  0  0  0  0  0
   37.2557   -4.6689   17.7864 H   0  0  0  0  0  0  0  0  0  0  0  0
   39.5153   -1.6378   17.3346 H   0  0  0  0  0  0  0  0  0  0  0  0
   39.6739    0.7559   19.7995 H   0  0  0  0  0  0  0  0  0  0  0  0
   42.0078   -1.5002   17.9826 H   0  0  0  0  0  0  0  0  0  0  0  0
   42.2683    2.3906   17.1788 H   0  0  0  0  0  0  0  0  0  0  0  0
   45.6647    3.4808   16.7734 H   0  0  0  0  0  0  0  0  0  0  0  0
   42.3844    3.4581   14.9429 H   0  0  0  0  0  0  0  0  0  0  0  0
   43.5629    6.7729   16.2553 H   0  0  0  0  0  0  0  0  0  0  0  0
   40.4498    6.8150   14.3184 H   0  0  0  0  0  0  0  0  0  0  0  0
   41.3273   10.0384   15.8881 H   0  0  0  0  0  0  0  0  0  0  0  0
   38.3156   10.1975   13.7295 H   0  0  0  0  0  0  0  0  0  0  0  0
   36.0775   12.6141   13.5552 H   0  0  0  0  0  0  0  0  0  0  0  0
   33.3177   11.1492   14.3268 H   0  0  0  0  0  0  0  0  0  0  0  0
   31.9485   11.9430   10.7146 H   0  0  0  0  0  0  0  0  0  0  0  0
   31.4605   12.1429   12.2478 H   0  0  0  0  0  0  0  0  0  0  0  0
  1  2  1  0  0  0  0
  1 82  1  0  0  0  0
  1 83  1  0  0  0  0
  1 84  1  0  0  0  0
  2  3  1  0  0  0  0
  2 85  1  0  0  0  0
  2 86  1  0  0  0  0
  3  4  1  0  0  0  0
  3 87  1  0  0  0  0
  3 88  1  0  0  0  0
  4  5  1  0  0  0  0
  4 89  1  0  0  0  0
  4 90  1  0  0  0  0
  5  6  1  0  0  0  0
  5 91  1  0  0  0  0
  6  7  1  0  0  0  0
  6 92  1  0  0  0  0
  7  8  1  0  0  0  0
  7 93  1  0  0  0  0
  8  9  1  0  0  0  0
  8 94  1  0  0  0  0
  9 10  1  0  0  0  0
  9 95  1  0  0  0  0
 10 11  1  0  0  0  0
 10 96  1  0  0  0  0
 11 12  1  0  0  0  0
 11 97  1  0  0  0  0
 12 13  1  0  0  0  0
 12 98  1  0  0  0  0
 13 14  1  0  0  0  0
 13 99  1  0  0  0  0
 14 15  1  0  0  0  0
 14100  1  0  0  0  0
 15 16  1  0  0  0  0
 15101  1  0  0  0  0
 16 17  1  0  0  0  0
 16102  1  0  0  0  0
 17 18  1  0  0  0  0
 17103  1  0  0  0  0
 18 19  1  0  0  0  0
 18104  1  0  0  0  0
 19 20  1  0  0  0  0
 19105  1  0  0  0  0
 20 21  1  0  0  0  0
 21 22  1  0  0  0  0
 21106  1  0  0  0  0
 22 23  1  0  0  0  0
 23 24  1  0  0  0  0
 23107  1  0  0  0  0
 24 25  1  0  0  0  0
 25 26  1  0  0  0  0
 25108  1  0  0  0  0
 26 27  1  0  0  0  0
 27 28  1  0  0  0  0
 27109  1  0  0  0  0
 28 29  1  0  0  0  0
 29 30  1  0  0  0  0
 29110  1  0  0  0  0
 30 31  1  0  0  0  0
 31 32  1  0  0  0  0
 31111  1  0  0  0  0
 32 33  1  0  0  0  0
 33 34  1  0  0  0  0
 33112  1  0  0  0  0
 34 35  1  0  0  0  0
 35 36  1  0  0  0  0
 35113  1  0  0  0  0
 36 37  1  0  0  0  0
 37 38  1  0  0  0  0
 37114  1  0  0  0  0
 38 39  1  0  0  0  0
 39 40  1  0  0  0  0
 39115  1  0  0  0  0
 40 41  1  0  0  0  0
 41 42  1  0  0  0  0
 41116  1  0  0  0  0
 42 43  1  0  0  0  0
 43 44  1  0  0  0  0
 43117  1  0  0  0  0
 44 45  1  0  0  0  0
 45 46  1  0  0  0  0
 45118  1  0  0  0  0
 46 47  1  0  0  0  0
 47 48  1  0  0  0  0
 47119  1  0  0  0  0
 48 49  1  0  0  0  0
 49 50  1  0  0  0  0
 49120  1  0  0  0  0
 50 51  1  0  0  0  0
 51 52  1  0  0  0  0
 51121  1  0  0  0  0
 52 53  1  0  0  0  0
 53 54  1  0  0  0  0
 53122  1  0  0  0  0
 54 55  1  0  0  0  0
 55 56  1  0  0  0  0
 55123  1  0  0  0  0
 56 57  1  0  0  0  0
 57 58  1  0  0  0  0
 57124  1  0  0  0  0
 58 59  1  0  0  0  0
 59 60  1  0  0  0  0
 59125  1  0  0  0  0
 60 61  1  0  0  0  0
 61 62  1  0  0  0  0
 61126  1  0  0  0  0
 62 63  1  0  0  0  0
 63 64  1  0  0  0  0
 63127  1  0  0  0  0
 64 65  1  0  0  0  0
 65 66  1  0  0  0  0
 65128  1  0  0  0  0
 66 67  1  0  0  0  0
 67 68  1  0  0  0  0
 67129  1  0  0  0  0
 68 69  1  0  0  0  0
 69 70  1  0  0  0  0
 69130  1  0  0  0  0
 70 71  1  0  0  0  0
 71 72  1  0  0  0  0
 71131  1  0  0  0  0
 72 73  1  0  0  0  0
 73 74  1  0  0  0  0
 73132  1  0  0  0  0
 74 75  1  0  0  0  0
 75 76  1  0  0  0  0
 75133  1  0  0  0  0
 76 77  1  0  0  0  0
 77 78  1  0  0  0  0
 77134  1  0  0  0  0
 78 79  1  0  0  0  0
 79 80  1  0  0  0  0
 79135  1  0  0  0  0
 80 81  1  0  0  0  0
 81136  1  0  0  0  0
 81137  1  0  0  0  0
M  END
$$$$
