
 OpenBabel04232216593D

156155  0  0  0  0  0  0  0  0999 V2000
    1.1677   -0.2076   -0.3922 O   0  0  0  0  0  0  0  0  0  0  0  0
    2.2944    0.0095    0.0579 C   0  0  0  0  0  0  0  0  0  0  0  0
    2.9149    1.3791   -0.0175 C   0  0  0  0  0  0  0  0  0  0  0  0
    3.0662   -1.0747    0.7902 C   0  0  0  0  0  0  0  0  0  0  0  0
    4.4689   -0.8952    0.6684 O   0  0  0  0  0  0  0  0  0  0  0  0
    5.1693   -1.9339    1.3423 C   0  0  0  0  0  0  0  0  0  0  0  0
    6.6579   -1.6916    1.1821 C   0  0  0  0  0  0  0  0  0  0  0  0
    7.4386   -2.7855    1.8904 C   0  0  0  0  0  0  0  0  0  0  0  0
    8.9323   -2.5603    1.7386 C   0  0  0  0  0  0  0  0  0  0  0  0
    9.6971   -3.6622    2.4518 C   0  0  0  0  0  0  0  0  0  0  0  0
   11.1905   -3.4377    2.3027 C   0  0  0  0  0  0  0  0  0  0  0  0
   11.9537   -4.5398    3.0139 C   0  0  0  0  0  0  0  0  0  0  0  0
   13.4464   -4.3124    2.8652 C   0  0  0  0  0  0  0  0  0  0  0  0
   14.2094   -5.4130    3.5777 C   0  0  0  0  0  0  0  0  0  0  0  0
   15.7017   -5.1862    3.4271 C   0  0  0  0  0  0  0  0  0  0  0  0
   16.4645   -6.2867    4.1395 C   0  0  0  0  0  0  0  0  0  0  0  0
   17.9565   -6.0607    3.9871 C   0  0  0  0  0  0  0  0  0  0  0  0
   18.7189   -7.1624    4.6978 C   0  0  0  0  0  0  0  0  0  0  0  0
   20.2109   -6.9355    4.5471 C   0  0  0  0  0  0  0  0  0  0  0  0
   20.9732   -8.0383    5.2563 C   0  0  0  0  0  0  0  0  0  0  0  0
   22.4652   -7.8102    5.1072 C   0  0  0  0  0  0  0  0  0  0  0  0
   23.2276   -8.9119    5.8179 C   0  0  0  0  0  0  0  0  0  0  0  0
   24.7196   -8.6849    5.6673 C   0  0  0  0  0  0  0  0  0  0  0  0
   25.4820   -9.7876    6.3764 C   0  0  0  0  0  0  0  0  0  0  0  0
   26.9739   -9.5595    6.2273 C   0  0  0  0  0  0  0  0  0  0  0  0
   27.7363  -10.6623    6.9364 C   0  0  0  0  0  0  0  0  0  0  0  0
   29.2282  -10.4329    6.7889 C   0  0  0  0  0  0  0  0  0  0  0  0
   29.9904  -11.5356    7.4979 C   0  0  0  0  0  0  0  0  0  0  0  0
   31.4821  -11.3062    7.3505 C   0  0  0  0  0  0  0  0  0  0  0  0
   32.2436  -12.4090    8.0596 C   0  0  0  0  0  0  0  0  0  0  0  0
   33.7347  -12.1783    7.9137 C   0  0  0  0  0  0  0  0  0  0  0  0
   34.4950  -13.2809    8.6227 C   0  0  0  0  0  0  0  0  0  0  0  0
   35.9845  -13.0488    8.4759 C   0  0  0  0  0  0  0  0  0  0  0  0
   36.7414  -14.1509    9.1845 C   0  0  0  0  0  0  0  0  0  0  0  0
   38.2268  -13.9159    9.0335 C   0  0  0  0  0  0  0  0  0  0  0  0
   38.9742  -15.0190    9.7404 C   0  0  0  0  0  0  0  0  0  0  0  0
   40.4519  -14.7790    9.5884 C   0  0  0  0  0  0  0  0  0  0  0  0
   41.1767  -15.8863   10.2957 C   0  0  0  0  0  0  0  0  0  0  0  0
   42.6378  -15.6372   10.1356 C   0  0  0  0  0  0  0  0  0  0  0  0
   43.3465  -16.7325   10.8374 C   0  0  0  0  0  0  0  0  0  0  0  0
   44.6750  -16.3939   10.6200 O   0  0  0  0  0  0  0  0  0  0  0  0
   45.3344  -17.4309   11.2845 O   0  0  0  0  0  0  0  0  0  0  0  0
   46.6953  -17.2038   11.1385 O   0  0  0  0  0  0  0  0  0  0  0  0
   47.3415  -18.2367   11.8005 O   0  0  0  0  0  0  0  0  0  0  0  0
   48.6960  -18.0015   11.6493 O   0  0  0  0  0  0  0  0  0  0  0  0
   49.3463  -19.0272   12.3066 O   0  0  0  0  0  0  0  0  0  0  0  0
   50.6935  -18.7787   12.1469 O   0  0  0  0  0  0  0  0  0  0  0  0
   51.3455  -19.7993   12.8009 O   0  0  0  0  0  0  0  0  0  0  0  0
   52.6870  -19.5452   12.6376 O   0  0  0  0  0  0  0  0  0  0  0  0
   53.3336  -20.5652   13.2913 O   0  0  0  0  0  0  0  0  0  0  0  0
   54.6713  -20.3123   13.1288 O   0  0  0  0  0  0  0  0  0  0  0  0
   55.3053  -21.3319   13.7822 O   0  0  0  0  0  0  0  0  0  0  0  0
   56.6468  -21.0817   13.6214 O   0  0  0  0  0  0  0  0  0  0  0  0
   57.2639  -22.0941   14.2702 O   0  0  0  0  0  0  0  0  0  0  0  0
   58.6157  -21.8458   14.1106 O   0  0  0  0  0  0  0  0  0  0  0  0
   59.2524  -22.8654   14.7639 O   0  0  0  0  0  0  0  0  0  0  0  0
   60.5842  -22.6082   14.5987 O   0  0  0  0  0  0  0  0  0  0  0  0
   61.2211  -23.6288   15.2527 O   0  0  0  0  0  0  0  0  0  0  0  0
   62.5523  -23.3701   15.0865 O   0  0  0  0  0  0  0  0  0  0  0  0
   63.1913  -24.3870   15.7382 O   0  0  0  0  0  0  0  0  0  0  0  0
   64.5204  -24.1227   15.5684 O   0  0  0  0  0  0  0  0  0  0  0  0
   65.1620  -25.1412   16.2210 O   0  0  0  0  0  0  0  0  0  0  0  0
   66.4983  -24.8837   16.0556 O   0  0  0  0  0  0  0  0  0  0  0  0
   67.1380  -25.9030   16.7088 O   0  0  0  0  0  0  0  0  0  0  0  0
   68.4718  -25.6474   16.5446 O   0  0  0  0  0  0  0  0  0  0  0  0
   69.1112  -26.6607   17.1939 O   0  0  0  0  0  0  0  0  0  0  0  0
   70.4543  -26.4252   17.0425 O   0  0  0  0  0  0  0  0  0  0  0  0
   71.0813  -27.4576   17.7041 O   0  0  0  0  0  0  0  0  0  0  0  0
   72.4217  -27.2279   17.5565 O   0  0  0  0  0  0  0  0  0  0  0  0
   73.0761  -28.2497   18.2114 O   0  0  0  0  0  0  0  0  0  0  0  0
   74.4208  -27.9857   18.0417 O   0  0  0  0  0  0  0  0  0  0  0  0
   75.0984  -29.0044   18.6943 O   0  0  0  0  0  0  0  0  0  0  0  0
   76.4494  -28.7483   18.5300 O   0  0  0  0  0  0  0  0  0  0  0  0
   77.1439  -29.7728   19.1865 O   0  0  0  0  0  0  0  0  0  0  0  0
   78.5166  -29.5127   19.0190 O   0  0  0  0  0  0  0  0  0  0  0  0
   79.2136  -30.5344   19.6737 O   0  0  0  0  0  0  0  0  0  0  0  0
   80.6104  -30.3097   19.5320 O   0  0  0  0  0  0  0  0  0  0  0  0
   81.1401  -31.4020   20.2316 C   0  0  0  0  0  0  0  0  0  0  0  0
    2.2381    2.0553   -0.5472 H   0  0  0  0  0  0  0  0  0  0  0  0
    3.8554    1.3286   -0.5714 H   0  0  0  0  0  0  0  0  0  0  0  0
    3.0870    1.7676    0.9893 H   0  0  0  0  0  0  0  0  0  0  0  0
    2.7872   -2.0392    0.3518 H   0  0  0  0  0  0  0  0  0  0  0  0
    2.7785   -1.0473    1.8466 H   0  0  0  0  0  0  0  0  0  0  0  0
    4.8981   -2.9038    0.9092 H   0  0  0  0  0  0  0  0  0  0  0  0
    4.9010   -1.9298    2.4053 H   0  0  0  0  0  0  0  0  0  0  0  0
    6.9212   -0.7065    1.5871 H   0  0  0  0  0  0  0  0  0  0  0  0
    6.9181   -1.6606    0.1167 H   0  0  0  0  0  0  0  0  0  0  0  0
    7.1682   -3.7644    1.4753 H   0  0  0  0  0  0  0  0  0  0  0  0
    7.1735   -2.8025    2.9550 H   0  0  0  0  0  0  0  0  0  0  0  0
    9.2082   -1.5847    2.1569 H   0  0  0  0  0  0  0  0  0  0  0  0
    9.2027   -2.5474    0.6758 H   0  0  0  0  0  0  0  0  0  0  0  0
    9.4235   -4.6391    2.0340 H   0  0  0  0  0  0  0  0  0  0  0  0
    9.4271   -3.6780    3.5151 H   0  0  0  0  0  0  0  0  0  0  0  0
   11.4655   -2.4624    2.7227 H   0  0  0  0  0  0  0  0  0  0  0  0
   11.4619   -3.4218    1.2400 H   0  0  0  0  0  0  0  0  0  0  0  0
   11.6808   -5.5155    2.5933 H   0  0  0  0  0  0  0  0  0  0  0  0
   11.6825   -4.5572    4.0767 H   0  0  0  0  0  0  0  0  0  0  0  0
   13.7197   -3.3363    3.2847 H   0  0  0  0  0  0  0  0  0  0  0  0
   13.7183   -4.2966    1.8025 H   0  0  0  0  0  0  0  0  0  0  0  0
   13.9357   -6.3894    3.1592 H   0  0  0  0  0  0  0  0  0  0  0  0
   13.9390   -5.4280    4.6407 H   0  0  0  0  0  0  0  0  0  0  0  0
   15.9759   -4.2099    3.8456 H   0  0  0  0  0  0  0  0  0  0  0  0
   15.9724   -5.1713    2.3641 H   0  0  0  0  0  0  0  0  0  0  0  0
   16.1896   -7.2632    3.7220 H   0  0  0  0  0  0  0  0  0  0  0  0
   16.1951   -6.3009    5.2028 H   0  0  0  0  0  0  0  0  0  0  0  0
   18.2318   -5.0848    4.4058 H   0  0  0  0  0  0  0  0  0  0  0  0
   18.2260   -6.0453    2.9238 H   0  0  0  0  0  0  0  0  0  0  0  0
   18.4445   -8.1380    4.2780 H   0  0  0  0  0  0  0  0  0  0  0  0
   18.4485   -7.1788    5.7609 H   0  0  0  0  0  0  0  0  0  0  0  0
   20.4853   -5.9604    4.9682 H   0  0  0  0  0  0  0  0  0  0  0  0
   20.4812   -6.9178    3.4841 H   0  0  0  0  0  0  0  0  0  0  0  0
   20.6997   -9.0132    4.8343 H   0  0  0  0  0  0  0  0  0  0  0  0
   20.7019   -8.0569    6.3191 H   0  0  0  0  0  0  0  0  0  0  0  0
   22.7385   -6.8347    5.5280 H   0  0  0  0  0  0  0  0  0  0  0  0
   22.7365   -7.7929    4.0445 H   0  0  0  0  0  0  0  0  0  0  0  0
   22.9534   -9.8876    5.3981 H   0  0  0  0  0  0  0  0  0  0  0  0
   22.9572   -8.9284    6.8810 H   0  0  0  0  0  0  0  0  0  0  0  0
   24.9939   -7.7098    6.0883 H   0  0  0  0  0  0  0  0  0  0  0  0
   24.9899   -8.6671    4.6043 H   0  0  0  0  0  0  0  0  0  0  0  0
   25.2086  -10.7626    5.9544 H   0  0  0  0  0  0  0  0  0  0  0  0
   25.2108   -9.8064    7.4392 H   0  0  0  0  0  0  0  0  0  0  0  0
   27.2473   -8.5846    6.6494 H   0  0  0  0  0  0  0  0  0  0  0  0
   27.2453   -9.5408    5.1645 H   0  0  0  0  0  0  0  0  0  0  0  0
   27.4640  -11.6371    6.5134 H   0  0  0  0  0  0  0  0  0  0  0  0
   27.4641  -10.6820    7.9989 H   0  0  0  0  0  0  0  0  0  0  0  0
   29.5006   -9.4581    7.2120 H   0  0  0  0  0  0  0  0  0  0  0  0
   29.5006  -10.4133    5.7264 H   0  0  0  0  0  0  0  0  0  0  0  0
   29.7183  -12.5105    7.0750 H   0  0  0  0  0  0  0  0  0  0  0  0
   29.7182  -11.5553    8.5604 H   0  0  0  0  0  0  0  0  0  0  0  0
   31.7547  -10.3315    7.7736 H   0  0  0  0  0  0  0  0  0  0  0  0
   31.7548  -11.2866    6.2881 H   0  0  0  0  0  0  0  0  0  0  0  0
   31.9726  -13.3838    7.6357 H   0  0  0  0  0  0  0  0  0  0  0  0
   31.9705  -12.4297    9.1219 H   0  0  0  0  0  0  0  0  0  0  0  0
   34.0068  -11.2040    8.3379 H   0  0  0  0  0  0  0  0  0  0  0  0
   34.0090  -12.1581    6.8517 H   0  0  0  0  0  0  0  0  0  0  0  0
   34.2251  -14.2561    8.1989 H   0  0  0  0  0  0  0  0  0  0  0  0
   34.2229  -13.3019    9.6852 H   0  0  0  0  0  0  0  0  0  0  0  0
   36.2580  -12.0751    8.9007 H   0  0  0  0  0  0  0  0  0  0  0  0
   36.2601  -13.0293    7.4142 H   0  0  0  0  0  0  0  0  0  0  0  0
   36.4727  -15.1271    8.7621 H   0  0  0  0  0  0  0  0  0  0  0  0
   36.4726  -14.1718   10.2479 H   0  0  0  0  0  0  0  0  0  0  0  0
   38.5042  -12.9438    9.4597 H   0  0  0  0  0  0  0  0  0  0  0  0
   38.5040  -13.8974    7.9723 H   0  0  0  0  0  0  0  0  0  0  0  0
   38.7095  -15.9955    9.3160 H   0  0  0  0  0  0  0  0  0  0  0  0
   38.7081  -15.0430   10.8045 H   0  0  0  0  0  0  0  0  0  0  0  0
   40.7354  -13.8102   10.0187 H   0  0  0  0  0  0  0  0  0  0  0  0
   40.7366  -14.7610    8.5288 H   0  0  0  0  0  0  0  0  0  0  0  0
   40.9156  -16.8635    9.8706 H   0  0  0  0  0  0  0  0  0  0  0  0
   40.9162  -15.9108   11.3612 H   0  0  0  0  0  0  0  0  0  0  0  0
   42.9424  -14.6700   10.5579 H   0  0  0  0  0  0  0  0  0  0  0  0
   42.9418  -15.6171    9.0803 H   0  0  0  0  0  0  0  0  0  0  0  0
   43.1372  -17.7196   10.4065 H   0  0  0  0  0  0  0  0  0  0  0  0
   43.1377  -16.7531   11.9143 H   0  0  0  0  0  0  0  0  0  0  0  0
   82.2192  -31.3231   20.1824 H   0  0  0  0  0  0  0  0  0  0  0  0
   80.7929  -32.3267   19.7597 H   0  0  0  0  0  0  0  0  0  0  0  0
   80.7912  -31.3612   21.2683 H   0  0  0  0  0  0  0  0  0  0  0  0
  1  2  2  0  0  0  0
  2  3  1  0  0  0  0
  2  4  1  0  0  0  0
  3 79  1  0  0  0  0
  3 80  1  0  0  0  0
  3 81  1  0  0  0  0
  4  5  1  0  0  0  0
  4 82  1  0  0  0  0
  4 83  1  0  0  0  0
  5  6  1  0  0  0  0
  6  7  1  0  0  0  0
  6 84  1  0  0  0  0
  6 85  1  0  0  0  0
  7  8  1  0  0  0  0
  7 86  1  0  0  0  0
  7 87  1  0  0  0  0
  8  9  1  0  0  0  0
  8 88  1  0  0  0  0
  8 89  1  0  0  0  0
  9 10  1  0  0  0  0
  9 90  1  0  0  0  0
  9 91  1  0  0  0  0
 10 11  1  0  0  0  0
 10 92  1  0  0  0  0
 10 93  1  0  0  0  0
 11 12  1  0  0  0  0
 11 94  1  0  0  0  0
 11 95  1  0  0  0  0
 12 13  1  0  0  0  0
 12 96  1  0  0  0  0
 12 97  1  0  0  0  0
 13 14  1  0  0  0  0
 13 98  1  0  0  0  0
 13 99  1  0  0  0  0
 14 15  1  0  0  0  0
 14100  1  0  0  0  0
 14101  1  0  0  0  0
 15 16  1  0  0  0  0
 15102  1  0  0  0  0
 15103  1  0  0  0  0
 16 17  1  0  0  0  0
 16104  1  0  0  0  0
 16105  1  0  0  0  0
 17 18  1  0  0  0  0
 17106  1  0  0  0  0
 17107  1  0  0  0  0
 18 19  1  0  0  0  0
 18108  1  0  0  0  0
 18109  1  0  0  0  0
 19 20  1  0  0  0  0
 19110  1  0  0  0  0
 19111  1  0  0  0  0
 20 21  1  0  0  0  0
 20112  1  0  0  0  0
 20113  1  0  0  0  0
 21 22  1  0  0  0  0
 21114  1  0  0  0  0
 21115  1  0  0  0  0
 22 23  1  0  0  0  0
 22116  1  0  0  0  0
 22117  1  0  0  0  0
 23 24  1  0  0  0  0
 23118  1  0  0  0  0
 23119  1  0  0  0  0
 24 25  1  0  0  0  0
 24120  1  0  0  0  0
 24121  1  0  0  0  0
 25 26  1  0  0  0  0
 25122  1  0  0  0  0
 25123  1  0  0  0  0
 26 27  1  0  0  0  0
 26124  1  0  0  0  0
 26125  1  0  0  0  0
 27 28  1  0  0  0  0
 27126  1  0  0  0  0
 27127  1  0  0  0  0
 28 29  1  0  0  0  0
 28128  1  0  0  0  0
 28129  1  0  0  0  0
 29 30  1  0  0  0  0
 29130  1  0  0  0  0
 29131  1  0  0  0  0
 30 31  1  0  0  0  0
 30132  1  0  0  0  0
 30133  1  0  0  0  0
 31 32  1  0  0  0  0
 31134  1  0  0  0  0
 31135  1  0  0  0  0
 32 33  1  0  0  0  0
 32136  1  0  0  0  0
 32137  1  0  0  0  0
 33 34  1  0  0  0  0
 33138  1  0  0  0  0
 33139  1  0  0  0  0
 34 35  1  0  0  0  0
 34140  1  0  0  0  0
 34141  1  0  0  0  0
 35 36  1  0  0  0  0
 35142  1  0  0  0  0
 35143  1  0  0  0  0
 36 37  1  0  0  0  0
 36144  1  0  0  0  0
 36145  1  0  0  0  0
 37 38  1  0  0  0  0
 37146  1  0  0  0  0
 37147  1  0  0  0  0
 38 39  1  0  0  0  0
 38148  1  0  0  0  0
 38149  1  0  0  0  0
 39 40  1  0  0  0  0
 39150  1  0  0  0  0
 39151  1  0  0  0  0
 40 41  1  0  0  0  0
 40152  1  0  0  0  0
 40153  1  0  0  0  0
 41 42  1  0  0  0  0
 42 43  1  0  0  0  0
 43 44  1  0  0  0  0
 44 45  1  0  0  0  0
 45 46  1  0  0  0  0
 46 47  1  0  0  0  0
 47 48  1  0  0  0  0
 48 49  1  0  0  0  0
 49 50  1  0  0  0  0
 50 51  1  0  0  0  0
 51 52  1  0  0  0  0
 52 53  1  0  0  0  0
 53 54  1  0  0  0  0
 54 55  1  0  0  0  0
 55 56  1  0  0  0  0
 56 57  1  0  0  0  0
 57 58  1  0  0  0  0
 58 59  1  0  0  0  0
 59 60  1  0  0  0  0
 60 61  1  0  0  0  0
 61 62  1  0  0  0  0
 62 63  1  0  0  0  0
 63 64  1  0  0  0  0
 64 65  1  0  0  0  0
 65 66  1  0  0  0  0
 66 67  1  0  0  0  0
 67 68  1  0  0  0  0
 68 69  1  0  0  0  0
 69 70  1  0  0  0  0
 70 71  1  0  0  0  0
 71 72  1  0  0  0  0
 72 73  1  0  0  0  0
 73 74  1  0  0  0  0
 74 75  1  0  0  0  0
 75 76  1  0  0  0  0
 76 77  1  0  0  0  0
 77 78  1  0  0  0  0
 78154  1  0  0  0  0
 78155  1  0  0  0  0
 78156  1  0  0  0  0
M  END
$$$$
