
 OpenBabel04232216433D

 44 44  0  0  0  0  0  0  0  0999 V2000
    9.9917    0.4214   -4.6647 C   0  0  0  0  0  0  0  0  0  0  0  0
    8.9681    0.0806   -3.4197 C   0  0  0  0  0  0  0  0  0  0  0  0
    7.5633    0.1588   -3.2957 C   0  0  0  0  0  0  0  0  0  0  0  0
    6.7483    0.3772   -2.1082 C   0  0  0  0  0  0  0  0  0  0  0  0
    6.1637    1.5819   -1.7993 C   0  0  0  0  0  0  0  0  0  0  0  0
    7.1853    2.6370   -1.7079 C   0  0  0  0  0  0  0  0  0  0  0  0
    7.5939    3.2230   -2.8418 C   0  0  0  0  0  0  0  0  0  0  0  0
    9.0005    3.3872   -2.9705 C   0  0  0  0  0  0  0  0  0  0  0  0
    9.6260    3.5845   -4.1276 C   0  0  0  0  0  0  0  0  0  0  0  0
   11.0404    3.6148   -4.0283 C   0  0  0  0  0  0  0  0  0  0  0  0
   11.8359    4.1363   -4.9527 C   0  0  0  0  0  0  0  0  0  0  0  0
   13.2086    4.2684   -4.5667 C   0  0  0  0  0  0  0  0  0  0  0  0
   14.0938    4.8300   -5.3772 C   0  0  0  0  0  0  0  0  0  0  0  0
   15.4967    4.7997   -5.0880 C   0  0  0  0  0  0  0  0  0  0  0  0
   16.3158    5.2818   -6.0346 C   0  0  0  0  0  0  0  0  0  0  0  0
   17.4640    4.4359   -6.3770 C   0  0  0  0  0  0  0  0  0  0  0  0
   17.1400    3.5560   -7.3685 C   0  0  0  0  0  0  0  0  0  0  0  0
   16.3201    2.3450   -6.9237 C   0  0  0  0  0  0  0  0  0  0  0  0
   14.9543    2.1407   -7.0413 C   0  0  0  0  0  0  0  0  0  0  0  0
   14.0007    1.2659   -6.0464 C   0  0  0  0  0  0  0  0  0  0  0  0
   12.5990    1.1943   -5.7600 C   0  0  0  0  0  0  0  0  0  0  0  0
   11.4049    0.4406   -4.7392 C   0  0  0  0  0  0  0  0  0  0  0  0
    9.3877    0.8407   -5.4721 H   0  0  0  0  0  0  0  0  0  0  0  0
    9.4837   -0.0759   -2.4662 H   0  0  0  0  0  0  0  0  0  0  0  0
    6.9169    0.2139   -4.1718 H   0  0  0  0  0  0  0  0  0  0  0  0
    6.5709   -0.3576   -1.2989 H   0  0  0  0  0  0  0  0  0  0  0  0
    5.4685    2.0093   -2.5304 H   0  0  0  0  0  0  0  0  0  0  0  0
    7.8723    2.5387   -0.8596 H   0  0  0  0  0  0  0  0  0  0  0  0
    6.9985    3.1865   -3.7535 H   0  0  0  0  0  0  0  0  0  0  0  0
    9.6086    3.1426   -2.0956 H   0  0  0  0  0  0  0  0  0  0  0  0
    9.1277    3.6831   -5.0851 H   0  0  0  0  0  0  0  0  0  0  0  0
   11.4850    3.2269   -3.1135 H   0  0  0  0  0  0  0  0  0  0  0  0
   11.4737    4.4689   -5.9244 H   0  0  0  0  0  0  0  0  0  0  0  0
   13.5116    3.8814   -3.5947 H   0  0  0  0  0  0  0  0  0  0  0  0
   13.7772    5.1087   -6.3802 H   0  0  0  0  0  0  0  0  0  0  0  0
   15.8295    4.0715   -4.3475 H   0  0  0  0  0  0  0  0  0  0  0  0
   15.9030    5.8920   -6.8316 H   0  0  0  0  0  0  0  0  0  0  0  0
   17.9061    4.0604   -5.4464 H   0  0  0  0  0  0  0  0  0  0  0  0
   16.8520    4.0459   -8.3076 H   0  0  0  0  0  0  0  0  0  0  0  0
   16.9817    1.7113   -6.3305 H   0  0  0  0  0  0  0  0  0  0  0  0
   14.4385    2.8136   -7.7369 H   0  0  0  0  0  0  0  0  0  0  0  0
   14.6899    1.0354   -5.2252 H   0  0  0  0  0  0  0  0  0  0  0  0
   12.8180    1.6091   -4.7428 H   0  0  0  0  0  0  0  0  0  0  0  0
   11.9109    0.0557   -3.8500 H   0  0  0  0  0  0  0  0  0  0  0  0
  1  2  1  0  0  0  0
  1 22  2  3  0  0  0
  1 23  1  0  0  0  0
  2  3  2  3  0  0  0
  2 24  1  0  0  0  0
  3  4  1  0  0  0  0
  3 25  1  0  0  0  0
  4  5  2  3  0  0  0
  4 26  1  0  0  0  0
  5  6  1  0  0  0  0
  5 27  1  0  0  0  0
  6  7  2  3  0  0  0
  6 28  1  0  0  0  0
  7  8  1  0  0  0  0
  7 29  1  0  0  0  0
  8  9  2  3  0  0  0
  8 30  1  0  0  0  0
  9 10  1  0  0  0  0
  9 31  1  0  0  0  0
 10 11  2  3  0  0  0
 10 32  1  0  0  0  0
 11 12  1  0  0  0  0
 11 33  1  0  0  0  0
 12 13  2  3  0  0  0
 12 34  1  0  0  0  0
 13 14  1  0  0  0  0
 13 35  1  0  0  0  0
 14 15  2  3  0  0  0
 14 36  1  0  0  0  0
 15 16  1  0  0  0  0
 15 37  1  0  0  0  0
 16 17  2  3  0  0  0
 16 38  1  0  0  0  0
 17 18  1  0  0  0  0
 17 39  1  0  0  0  0
 18 19  2  3  0  0  0
 18 40  1  0  0  0  0
 19 20  1  0  0  0  0
 19 41  1  0  0  0  0
 20 21  2  3  0  0  0
 20 42  1  0  0  0  0
 21 22  1  0  0  0  0
 21 43  1  0  0  0  0
 22 44  1  0  0  0  0
M  END
$$$$
