
 OpenBabel04232216473D

 47 48  0  0  0  0  0  0  0  0999 V2000
    3.9376   -1.0129   -2.6523 C   0  0  0  0  0  0  0  0  0  0  0  0
    5.0056   -1.8600   -2.0030 C   0  0  0  0  0  0  0  0  0  0  0  0
    4.6864   -2.2940   -0.6421 C   0  0  0  0  0  0  0  0  0  0  0  0
    5.0773   -1.5512    0.4166 C   0  0  0  0  0  0  0  0  0  0  0  0
    5.4440   -0.1901    0.5315 N   0  0  0  0  0  0  0  0  0  0  0  0
    6.0760    0.6259   -0.5290 C   0  0  0  0  0  0  0  0  0  0  0  0
    7.4608    1.1624   -0.1533 C   0  0  0  0  0  0  0  0  0  0  0  0
    7.6722    1.9594    1.1355 C   0  0  0  0  0  0  0  0  0  0  0  0
    6.7128    1.7619    2.3040 C   0  0  0  0  0  0  0  0  0  0  0  0
    5.2523    1.9158    1.9133 C   0  0  0  0  0  0  0  0  0  0  0  0
    4.6009    0.6157    1.4434 C   0  0  0  0  0  0  0  0  0  0  0  0
    5.4898   -2.4213    1.5599 C   0  0  0  0  0  0  0  0  0  0  0  0
    6.8177   -2.6964    1.5466 C   0  0  0  0  0  0  0  0  0  0  0  0
    7.7922   -1.7401    2.1384 C   0  0  0  0  0  0  0  0  0  0  0  0
    7.2516   -3.4506    0.3155 C   0  0  0  0  0  0  0  0  0  0  0  0
    7.1849   -4.6734    0.2641 O   0  0  0  0  0  0  0  0  0  0  0  0
    7.7524   -2.6105   -0.8614 C   0  0  0  0  0  0  0  0  0  0  0  0
    9.2506   -2.4377   -0.7405 C   0  0  0  0  0  0  0  0  0  0  0  0
    7.1202   -2.9418   -2.0222 C   0  0  0  0  0  0  0  0  0  0  0  0
    7.8745   -3.7945   -3.0246 C   0  0  0  0  0  0  0  0  0  0  0  0
    6.1079   -2.1756   -2.6260 N   0  0  0  0  0  0  0  0  0  0  0  0
    3.1061   -1.6498   -2.9676 H   0  0  0  0  0  0  0  0  0  0  0  0
    4.3291   -0.4583   -3.5059 H   0  0  0  0  0  0  0  0  0  0  0  0
    3.5466   -0.2913   -1.9232 H   0  0  0  0  0  0  0  0  0  0  0  0
    4.5044   -3.3662   -0.5896 H   0  0  0  0  0  0  0  0  0  0  0  0
    5.4160    1.4502   -0.8224 H   0  0  0  0  0  0  0  0  0  0  0  0
    6.2423    0.0581   -1.4410 H   0  0  0  0  0  0  0  0  0  0  0  0
    7.7976    1.8014   -0.9825 H   0  0  0  0  0  0  0  0  0  0  0  0
    8.1732    0.3352   -0.1667 H   0  0  0  0  0  0  0  0  0  0  0  0
    7.6724    3.0258    0.8782 H   0  0  0  0  0  0  0  0  0  0  0  0
    8.6904    1.7553    1.4966 H   0  0  0  0  0  0  0  0  0  0  0  0
    6.9524    2.5264    3.0531 H   0  0  0  0  0  0  0  0  0  0  0  0
    6.8820    0.8042    2.8007 H   0  0  0  0  0  0  0  0  0  0  0  0
    5.1500    2.6961    1.1494 H   0  0  0  0  0  0  0  0  0  0  0  0
    4.6851    2.2721    2.7814 H   0  0  0  0  0  0  0  0  0  0  0  0
    3.6600    0.8560    0.9307 H   0  0  0  0  0  0  0  0  0  0  0  0
    4.3358    0.0214    2.3263 H   0  0  0  0  0  0  0  0  0  0  0  0
    4.8561   -3.3200    1.5384 H   0  0  0  0  0  0  0  0  0  0  0  0
    7.3664   -1.2741    3.0312 H   0  0  0  0  0  0  0  0  0  0  0  0
    8.0539   -0.9527    1.4381 H   0  0  0  0  0  0  0  0  0  0  0  0
    8.7114   -2.2470    2.4375 H   0  0  0  0  0  0  0  0  0  0  0  0
    9.4726   -1.4317   -0.3699 H   0  0  0  0  0  0  0  0  0  0  0  0
    9.7681   -2.5241   -1.7001 H   0  0  0  0  0  0  0  0  0  0  0  0
    9.7036   -3.1507   -0.0448 H   0  0  0  0  0  0  0  0  0  0  0  0
    7.1924   -4.5040   -3.4985 H   0  0  0  0  0  0  0  0  0  0  0  0
    8.6549   -4.3889   -2.5386 H   0  0  0  0  0  0  0  0  0  0  0  0
    8.3412   -3.1722   -3.7957 H   0  0  0  0  0  0  0  0  0  0  0  0
  1  2  1  0  0  0  0
  1 22  1  0  0  0  0
  1 23  1  0  0  0  0
  1 24  1  0  0  0  0
  2  3  1  0  0  0  0
  2 21  2  3  0  0  0
  3  4  2  3  0  0  0
  3 25  1  0  0  0  0
  4  5  1  0  0  0  0
  4 12  1  0  0  0  0
  5  6  1  0  0  0  0
  5 11  1  0  0  0  0
  6  7  1  0  0  0  0
  6 26  1  0  0  0  0
  6 27  1  0  0  0  0
  7  8  1  0  0  0  0
  7 28  1  0  0  0  0
  7 29  1  0  0  0  0
  8  9  1  0  0  0  0
  8 30  1  0  0  0  0
  8 31  1  0  0  0  0
  9 10  1  0  0  0  0
  9 32  1  0  0  0  0
  9 33  1  0  0  0  0
 10 11  1  0  0  0  0
 10 34  1  0  0  0  0
 10 35  1  0  0  0  0
 11 36  1  0  0  0  0
 11 37  1  0  0  0  0
 12 13  2  3  0  0  0
 12 38  1  0  0  0  0
 13 14  1  0  0  0  0
 13 15  1  0  0  0  0
 14 39  1  0  0  0  0
 14 40  1  0  0  0  0
 14 41  1  0  0  0  0
 15 16  2  0  0  0  0
 15 17  1  0  0  0  0
 17 18  1  0  0  0  0
 17 19  2  3  0  0  0
 18 42  1  0  0  0  0
 18 43  1  0  0  0  0
 18 44  1  0  0  0  0
 19 20  1  0  0  0  0
 19 21  1  0  0  0  0
 20 45  1  0  0  0  0
 20 46  1  0  0  0  0
 20 47  1  0  0  0  0
M  END
$$$$
