
 OpenBabel04232216423D

 42 44  0  0  0  0  0  0  0  0999 V2000
   -1.5279   -0.0688   -0.1647 C   0  0  0  0  0  0  0  0  0  0  0  0
   -0.9816    0.3204   -1.3140 C   0  0  0  0  0  0  0  0  0  0  0  0
    0.3259   -0.0350   -1.8127 C   0  0  0  0  0  0  0  0  0  0  0  0
    1.2391   -0.9420   -1.3849 C   0  0  0  0  0  0  0  0  0  0  0  0
    2.4914   -0.9399   -2.2436 C   0  0  0  0  0  0  0  0  0  0  0  0
    1.1807   -1.8292   -0.2620 N   0  0  0  0  0  0  0  0  0  0  0  0
    2.3895   -2.7320    0.1379 C   0  0  0  0  0  0  0  0  0  0  0  0
    2.0604   -4.2654    0.3099 C   0  0  0  0  0  0  0  0  0  0  0  0
    3.1236   -5.2578    1.0069 C   0  0  0  0  0  0  0  0  0  0  0  0
    2.9491   -5.1495    2.4095 N   0  0  0  0  0  0  0  0  0  0  0  0
    2.4390   -6.2945    2.7738 C   0  0  0  0  0  0  0  0  0  0  0  0
    2.2643   -7.2003    1.6324 C   0  0  0  0  0  0  0  0  0  0  0  0
    1.7743   -8.4389    1.4820 C   0  0  0  0  0  0  0  0  0  0  0  0
    1.9919   -9.4041    2.5478 C   0  0  0  0  0  0  0  0  0  0  0  0
    2.7768  -10.4191    2.1386 C   0  0  0  0  0  0  0  0  0  0  0  0
    4.1801  -10.3131    2.4818 C   0  0  0  0  0  0  0  0  0  0  0  0
    5.0656   -9.4454    1.9553 C   0  0  0  0  0  0  0  0  0  0  0  0
    5.0785   -8.4369    0.8674 C   0  0  0  0  0  0  0  0  0  0  0  0
    4.4291   -7.3545    0.3644 C   0  0  0  0  0  0  0  0  0  0  0  0
    3.1493   -6.5998    0.6404 C   0  0  0  0  0  0  0  0  0  0  0  0
    0.1850   -1.6696    0.7216 C   0  0  0  0  0  0  0  0  0  0  0  0
   -0.9354   -0.9333    0.8155 C   0  0  0  0  0  0  0  0  0  0  0  0
   -2.5198    0.3192    0.0853 H   0  0  0  0  0  0  0  0  0  0  0  0
   -1.5516    1.0043   -1.9446 H   0  0  0  0  0  0  0  0  0  0  0  0
    0.5558    0.5787   -2.6901 H   0  0  0  0  0  0  0  0  0  0  0  0
    2.4553   -0.2492   -3.0777 H   0  0  0  0  0  0  0  0  0  0  0  0
    2.6539   -1.9301   -2.6738 H   0  0  0  0  0  0  0  0  0  0  0  0
    3.3592   -0.6478   -1.6466 H   0  0  0  0  0  0  0  0  0  0  0  0
    2.7865   -2.3307    1.0789 H   0  0  0  0  0  0  0  0  0  0  0  0
    3.1944   -2.6453   -0.5947 H   0  0  0  0  0  0  0  0  0  0  0  0
    1.7885   -4.6739   -0.6700 H   0  0  0  0  0  0  0  0  0  0  0  0
    1.1512   -4.3286    0.9230 H   0  0  0  0  0  0  0  0  0  0  0  0
    2.1473   -6.5859    3.7901 H   0  0  0  0  0  0  0  0  0  0  0  0
    1.7986   -8.8610    0.4753 H   0  0  0  0  0  0  0  0  0  0  0  0
    2.2044   -8.9619    3.5236 H   0  0  0  0  0  0  0  0  0  0  0  0
    2.6449  -10.8673    1.1527 H   0  0  0  0  0  0  0  0  0  0  0  0
    4.5125  -11.0361    3.2267 H   0  0  0  0  0  0  0  0  0  0  0  0
    6.0824   -9.6167    2.3291 H   0  0  0  0  0  0  0  0  0  0  0  0
    6.0154   -8.6389    0.3260 H   0  0  0  0  0  0  0  0  0  0  0  0
    4.9464   -6.8946   -0.4843 H   0  0  0  0  0  0  0  0  0  0  0  0
    0.4231   -2.2575    1.6016 H   0  0  0  0  0  0  0  0  0  0  0  0
   -1.5025   -0.9942    1.7413 H   0  0  0  0  0  0  0  0  0  0  0  0
  1  2  2  0  0  0  0
  1 22  1  0  0  0  0
  1 23  1  0  0  0  0
  2  3  1  0  0  0  0
  2 24  1  0  0  0  0
  3  4  2  0  0  0  0
  3 25  1  0  0  0  0
  4  5  1  0  0  0  0
  4  6  1  0  0  0  0
  5 26  1  0  0  0  0
  5 27  1  0  0  0  0
  5 28  1  0  0  0  0
  6  7  1  0  0  0  0
  6 21  1  0  0  0  0
  7  8  1  0  0  0  0
  7 29  1  0  0  0  0
  7 30  1  0  0  0  0
  8  9  1  0  0  0  0
  8 31  1  0  0  0  0
  8 32  1  0  0  0  0
  9 10  1  0  0  0  0
  9 20  2  0  0  0  0
 10 11  2  0  0  0  0
 11 12  1  0  0  0  0
 11 33  1  0  0  0  0
 12 13  2  3  0  0  0
 12 20  1  0  0  0  0
 13 14  1  0  0  0  0
 13 34  1  0  0  0  0
 14 15  2  3  0  0  0
 14 35  1  0  0  0  0
 15 16  1  0  0  0  0
 15 36  1  0  0  0  0
 16 17  2  3  0  0  0
 16 37  1  0  0  0  0
 17 18  1  0  0  0  0
 17 38  1  0  0  0  0
 18 19  2  3  0  0  0
 18 39  1  0  0  0  0
 19 20  1  0  0  0  0
 19 40  1  0  0  0  0
 21 22  2  0  0  0  0
 21 41  1  0  0  0  0
 22 42  1  0  0  0  0
M  END
$$$$
