
 OpenBabel04232216463D

 35 36  0  0  0  0  0  0  0  0999 V2000
    0.9395    0.0742    0.0301 C   0  0  0  0  0  0  0  0  0  0  0  0
    2.4403    0.0702    0.0986 C   0  0  0  0  0  0  0  0  0  0  0  0
    3.1065    1.1735   -0.5797 C   0  0  0  0  0  0  0  0  0  0  0  0
    3.9111    2.0687    0.0242 C   0  0  0  0  0  0  0  0  0  0  0  0
    4.6237    3.1399   -0.7546 C   0  0  0  0  0  0  0  0  0  0  0  0
    4.1014    2.1127    1.3831 N   0  0  0  0  0  0  0  0  0  0  0  0
    4.7704    1.1451    1.9266 C   0  0  0  0  0  0  0  0  0  0  0  0
    5.3900   -0.0756    1.2977 C   0  0  0  0  0  0  0  0  0  0  0  0
    6.7698   -0.1971    1.2671 N   0  0  0  0  0  0  0  0  0  0  0  0
    7.6295    0.7697    1.7492 C   0  0  0  0  0  0  0  0  0  0  0  0
    7.2571    1.7433    2.3956 O   0  0  0  0  0  0  0  0  0  0  0  0
    8.9535    0.5565    1.4359 N   0  0  0  0  0  0  0  0  0  0  0  0
    9.9570    1.3622    1.9098 C   0  0  0  0  0  0  0  0  0  0  0  0
    9.9802    2.2031    2.9548 C   0  0  0  0  0  0  0  0  0  0  0  0
   11.2569    2.8495    3.0669 C   0  0  0  0  0  0  0  0  0  0  0  0
   12.0797    2.4476    2.0985 C   0  0  0  0  0  0  0  0  0  0  0  0
   11.2978    1.4895    1.2949 C   0  0  0  0  0  0  0  0  0  0  0  0
   11.6738    0.9262    0.2824 O   0  0  0  0  0  0  0  0  0  0  0  0
    4.5682   -1.0140    0.7933 C   0  0  0  0  0  0  0  0  0  0  0  0
    3.1177   -0.9164    0.7223 C   0  0  0  0  0  0  0  0  0  0  0  0
    0.5576    0.9017   -0.5786 H   0  0  0  0  0  0  0  0  0  0  0  0
    0.5093    0.1798    1.0321 H   0  0  0  0  0  0  0  0  0  0  0  0
    0.5713   -0.8560   -0.4147 H   0  0  0  0  0  0  0  0  0  0  0  0
    2.9302    1.2406   -1.6499 H   0  0  0  0  0  0  0  0  0  0  0  0
    4.4952    3.0184   -1.8350 H   0  0  0  0  0  0  0  0  0  0  0  0
    5.7000    3.1039   -0.5476 H   0  0  0  0  0  0  0  0  0  0  0  0
    4.2523    4.1302   -0.4745 H   0  0  0  0  0  0  0  0  0  0  0  0
    4.9422    1.2118    3.0159 H   0  0  0  0  0  0  0  0  0  0  0  0
    7.1674   -1.0369    0.8731 H   0  0  0  0  0  0  0  0  0  0  0  0
    9.1858   -0.0091    0.6288 H   0  0  0  0  0  0  0  0  0  0  0  0
    9.1664    2.3881    3.6371 H   0  0  0  0  0  0  0  0  0  0  0  0
   11.4803    3.5642    3.8448 H   0  0  0  0  0  0  0  0  0  0  0  0
   13.0949    2.7421    1.9016 H   0  0  0  0  0  0  0  0  0  0  0  0
    4.9721   -1.9364    0.3851 H   0  0  0  0  0  0  0  0  0  0  0  0
    2.5678   -1.7365    1.1798 H   0  0  0  0  0  0  0  0  0  0  0  0
  1  2  1  0  0  0  0
  1 21  1  0  0  0  0
  1 22  1  0  0  0  0
  1 23  1  0  0  0  0
  2  3  1  0  0  0  0
  2 20  2  0  0  0  0
  3  4  2  0  0  0  0
  3 24  1  0  0  0  0
  4  5  1  0  0  0  0
  4  6  1  0  0  0  0
  5 25  1  0  0  0  0
  5 26  1  0  0  0  0
  5 27  1  0  0  0  0
  6  7  2  0  0  0  0
  7  8  1  0  0  0  0
  7 28  1  0  0  0  0
  8  9  1  0  0  0  0
  8 19  2  0  0  0  0
  9 10  1  0  0  0  0
  9 29  1  0  0  0  0
 10 11  2  0  0  0  0
 10 12  1  0  0  0  0
 12 13  1  0  0  0  0
 12 30  1  0  0  0  0
 13 14  2  0  0  0  0
 13 17  1  0  0  0  0
 14 15  1  0  0  0  0
 14 31  1  0  0  0  0
 15 16  2  0  0  0  0
 15 32  1  0  0  0  0
 16 17  1  0  0  0  0
 16 33  1  0  0  0  0
 17 18  2  0  0  0  0
 19 20  1  0  0  0  0
 19 34  1  0  0  0  0
 20 35  1  0  0  0  0
M  END
$$$$
