
 OpenBabel04232216463D

 53 54  0  0  1  0  0  0  0  0999 V2000
    5.1078   -1.1818   -1.8288 C   0  0  0  0  0  0  0  0  0  0  0  0
    6.0332   -2.0334   -0.8803 C   0  0  0  0  0  0  0  0  0  0  0  0
    5.3004   -1.6729    0.3514 C   0  0  0  0  0  0  0  0  0  0  0  0
    4.9730   -2.4112    1.3840 C   0  0  0  0  0  0  0  0  0  0  0  0
    4.6246   -3.9403    1.6306 C   0  0  3  0  0  0  0  0  0  0  0  0
    3.1333   -3.7353    1.4237 C   0  0  0  0  0  0  0  0  0  0  0  0
    2.3048   -5.0018    1.6134 C   0  0  0  0  0  0  0  0  0  0  0  0
    2.3358   -5.4853    3.0492 C   0  0  0  0  0  0  0  0  0  0  0  0
    5.8808   -3.3113    1.7226 N   0  0  0  0  0  0  0  0  0  0  0  0
    6.8210   -3.0875    2.6979 C   0  0  0  0  0  0  0  0  0  0  0  0
    7.3753   -1.6436    2.7445 C   0  0  0  0  0  0  0  0  0  0  0  0
    7.4365   -4.1297    3.2999 C   0  0  0  0  0  0  0  0  0  0  0  0
    7.0734   -5.5376    2.8593 C   0  0  0  0  0  0  0  0  0  0  0  0
    8.4705   -4.0179    4.1941 N   0  0  0  0  0  0  0  0  0  0  0  0
    9.5983   -4.4574    3.7143 C   0  0  0  0  0  0  0  0  0  0  0  0
   10.4139   -3.6951    2.6776 C   0  0  0  0  0  0  0  0  0  0  0  0
   11.1650   -2.8065    3.0344 O   0  0  0  0  0  0  0  0  0  0  0  0
   10.1204   -4.0218    1.3334 N   0  0  0  0  0  0  0  0  0  0  0  0
   10.3274   -5.4522    1.0578 C   0  0  0  0  0  0  0  0  0  0  0  0
    9.2648   -3.1004    0.6808 C   0  0  0  0  0  0  0  0  0  0  0  0
    8.5676   -3.0731   -0.4921 C   0  0  0  0  0  0  0  0  0  0  0  0
    9.3486   -3.7712   -1.5883 C   0  0  0  0  0  0  0  0  0  0  0  0
    7.4237   -2.0015   -0.9215 C   0  0  0  0  0  0  0  0  0  0  0  0
    7.8934   -0.5536   -1.0391 C   0  0  0  0  0  0  0  0  0  0  0  0
    4.0741   -1.5739   -1.7911 H   0  0  0  0  0  0  0  0  0  0  0  0
    5.4095   -1.1729   -2.8739 H   0  0  0  0  0  0  0  0  0  0  0  0
    5.0233   -0.1271   -1.5034 H   0  0  0  0  0  0  0  0  0  0  0  0
    4.8017   -0.7029    0.4325 H   0  0  0  0  0  0  0  0  0  0  0  0
    4.8455   -4.7169    0.9177 H   0  0  0  0  0  0  0  0  0  0  0  0
    2.9630   -3.4282    0.3790 H   0  0  0  0  0  0  0  0  0  0  0  0
    2.7124   -2.9473    2.0647 H   0  0  0  0  0  0  0  0  0  0  0  0
    2.6545   -5.7935    0.9406 H   0  0  0  0  0  0  0  0  0  0  0  0
    1.2663   -4.7831    1.3329 H   0  0  0  0  0  0  0  0  0  0  0  0
    3.3543   -5.7408    3.3534 H   0  0  0  0  0  0  0  0  0  0  0  0
    1.7102   -6.3753    3.1591 H   0  0  0  0  0  0  0  0  0  0  0  0
    1.9563   -4.7117    3.7243 H   0  0  0  0  0  0  0  0  0  0  0  0
    6.6348   -0.8891    3.0012 H   0  0  0  0  0  0  0  0  0  0  0  0
    7.6708   -1.3269    1.7321 H   0  0  0  0  0  0  0  0  0  0  0  0
    8.2737   -1.5181    3.3522 H   0  0  0  0  0  0  0  0  0  0  0  0
    5.9984   -5.7223    2.9040 H   0  0  0  0  0  0  0  0  0  0  0  0
    7.5602   -6.3037    3.4674 H   0  0  0  0  0  0  0  0  0  0  0  0
    7.3944   -5.6839    1.8202 H   0  0  0  0  0  0  0  0  0  0  0  0
    9.9699   -5.4504    3.9837 H   0  0  0  0  0  0  0  0  0  0  0  0
    9.4036   -6.0293    1.0945 H   0  0  0  0  0  0  0  0  0  0  0  0
   10.9768   -5.8742    1.8361 H   0  0  0  0  0  0  0  0  0  0  0  0
   10.8715   -5.6070    0.1165 H   0  0  0  0  0  0  0  0  0  0  0  0
    9.2188   -2.2048    1.2786 H   0  0  0  0  0  0  0  0  0  0  0  0
    9.1232   -4.8374   -1.6733 H   0  0  0  0  0  0  0  0  0  0  0  0
   10.4300   -3.7097   -1.3520 H   0  0  0  0  0  0  0  0  0  0  0  0
    9.2672   -3.2732   -2.5534 H   0  0  0  0  0  0  0  0  0  0  0  0
    8.9587   -0.5090   -1.0630 H   0  0  0  0  0  0  0  0  0  0  0  0
    7.5128    0.0592   -0.2098 H   0  0  0  0  0  0  0  0  0  0  0  0
    7.5296   -0.1250   -1.9965 H   0  0  0  0  0  0  0  0  0  0  0  0
  1  2  1  0  0  0  0
  1 25  1  0  0  0  0
  1 26  1  0  0  0  0
  1 27  1  0  0  0  0
  2  3  1  0  0  0  0
  2 23  2  0  0  0  0
  3  4  2  0  0  0  0
  3 28  1  0  0  0  0
  4  5  1  0  0  0  0
  4  9  1  0  0  0  0
  5  6  1  0  0  0  0
  5  9  1  0  0  0  0
  5 29  1  0  0  0  0
  6  7  1  0  0  0  0
  6 30  1  0  0  0  0
  6 31  1  0  0  0  0
  7  8  1  0  0  0  0
  7 32  1  0  0  0  0
  7 33  1  0  0  0  0
  8 34  1  0  0  0  0
  8 35  1  0  0  0  0
  8 36  1  0  0  0  0
  9 10  1  0  0  0  0
 10 11  1  0  0  0  0
 10 12  2  0  0  0  0
 11 37  1  0  0  0  0
 11 38  1  0  0  0  0
 11 39  1  0  0  0  0
 12 13  1  0  0  0  0
 12 14  1  0  0  0  0
 13 40  1  0  0  0  0
 13 41  1  0  0  0  0
 13 42  1  0  0  0  0
 14 15  2  0  0  0  0
 15 16  1  0  0  0  0
 15 43  1  0  0  0  0
 16 17  2  0  0  0  0
 16 18  1  0  0  0  0
 18 19  1  0  0  0  0
 18 20  1  0  0  0  0
 19 44  1  0  0  0  0
 19 45  1  0  0  0  0
 19 46  1  0  0  0  0
 20 21  2  0  0  0  0
 20 47  1  0  0  0  0
 21 22  1  0  0  0  0
 21 23  1  0  0  0  0
 22 48  1  0  0  0  0
 22 49  1  0  0  0  0
 22 50  1  0  0  0  0
 23 24  1  0  0  0  0
 24 51  1  0  0  0  0
 24 52  1  0  0  0  0
 24 53  1  0  0  0  0
M  END
$$$$
