
 OpenBabel04232216563D

230230  0  0  0  0  0  0  0  0999 V2000
   -0.1261    5.0005    2.0499 C   0  0  0  0  0  0  0  0  0  0  0  0
   -0.0430    3.7362    1.4802 N   0  0  0  0  0  0  0  0  0  0  0  0
   -0.3799    2.8770    0.6149 C   0  0  0  0  0  0  0  0  0  0  0  0
    0.6068    2.5393    1.6363 C   0  0  0  0  0  0  0  0  0  0  0  0
    1.6408    2.9373    3.1084 C   0  0  0  0  0  0  0  0  0  0  0  0
    2.7001    1.4575    3.5901 S   0  0  0  0  0  0  0  0  0  0  0  0
    3.7191    1.9689    5.1029 C   0  0  0  0  0  0  0  0  0  0  0  0
    2.7382    2.3466    6.2293 C   0  0  0  0  0  0  0  0  0  0  0  0
    3.4512    2.7447    7.4076 O   0  0  0  0  0  0  0  0  0  0  0  0
    2.5137    3.0917    8.4422 C   0  0  0  0  0  0  0  0  0  0  0  0
    3.2752    3.5123    9.6808 C   0  0  0  0  0  0  0  0  0  0  0  0
    2.2889    3.8787   10.7732 C   0  0  0  0  0  0  0  0  0  0  0  0
    3.0362    4.2987   12.0102 C   0  0  0  0  0  0  0  0  0  0  0  0
    2.0695    4.6725   13.1243 C   0  0  0  0  0  0  0  0  0  0  0  0
    2.8131    5.0967   14.3736 C   0  0  0  0  0  0  0  0  0  0  0  0
    1.8390    5.4649   15.4715 C   0  0  0  0  0  0  0  0  0  0  0  0
    2.5851    5.8859   16.7175 C   0  0  0  0  0  0  0  0  0  0  0  0
    1.6112    6.2537   17.8140 C   0  0  0  0  0  0  0  0  0  0  0  0
    2.3573    6.6746   19.0599 C   0  0  0  0  0  0  0  0  0  0  0  0
    1.3835    7.0424   20.1565 C   0  0  0  0  0  0  0  0  0  0  0  0
    2.1296    7.4633   21.4024 C   0  0  0  0  0  0  0  0  0  0  0  0
    1.1558    7.8311   22.4989 C   0  0  0  0  0  0  0  0  0  0  0  0
    1.9019    8.2520   23.7448 C   0  0  0  0  0  0  0  0  0  0  0  0
    0.9280    8.6198   24.8414 C   0  0  0  0  0  0  0  0  0  0  0  0
    1.6741    9.0408   26.0873 C   0  0  0  0  0  0  0  0  0  0  0  0
    0.7003    9.4086   27.1838 C   0  0  0  0  0  0  0  0  0  0  0  0
    1.4464    9.8314   28.4291 C   0  0  0  0  0  0  0  0  0  0  0  0
    0.4726   10.1992   29.5257 C   0  0  0  0  0  0  0  0  0  0  0  0
    1.2187   10.6239   30.7703 C   0  0  0  0  0  0  0  0  0  0  0  0
    0.2448   10.9936   31.8662 C   0  0  0  0  0  0  0  0  0  0  0  0
    0.9909   11.4184   33.1108 C   0  0  0  0  0  0  0  0  0  0  0  0
    0.0171   11.7900   34.2061 C   0  0  0  0  0  0  0  0  0  0  0  0
    0.7632   12.2128   35.4513 C   0  0  0  0  0  0  0  0  0  0  0  0
   -0.2107   12.5844   36.5466 C   0  0  0  0  0  0  0  0  0  0  0  0
    0.5354   13.0072   37.7918 C   0  0  0  0  0  0  0  0  0  0  0  0
   -0.4384   13.3788   38.8871 C   0  0  0  0  0  0  0  0  0  0  0  0
    0.3077   13.8016   40.1324 C   0  0  0  0  0  0  0  0  0  0  0  0
   -0.6662   14.1732   41.2277 C   0  0  0  0  0  0  0  0  0  0  0  0
    0.0799   14.5961   42.4729 C   0  0  0  0  0  0  0  0  0  0  0  0
   -0.8939   14.9696   43.5675 C   0  0  0  0  0  0  0  0  0  0  0  0
   -0.1478   15.3943   44.8121 C   0  0  0  0  0  0  0  0  0  0  0  0
   -1.1217   15.7678   45.9068 C   0  0  0  0  0  0  0  0  0  0  0  0
   -0.3756   16.1925   47.1514 C   0  0  0  0  0  0  0  0  0  0  0  0
   -1.3494   16.5660   48.2460 C   0  0  0  0  0  0  0  0  0  0  0  0
   -0.6033   16.9926   49.4900 C   0  0  0  0  0  0  0  0  0  0  0  0
   -1.5771   17.3642   50.5852 C   0  0  0  0  0  0  0  0  0  0  0  0
   -0.8310   17.7890   51.8298 C   0  0  0  0  0  0  0  0  0  0  0  0
   -1.8049   18.1587   52.9258 C   0  0  0  0  0  0  0  0  0  0  0  0
   -1.0588   18.5853   54.1697 C   0  0  0  0  0  0  0  0  0  0  0  0
   -2.0326   18.9569   55.2650 C   0  0  0  0  0  0  0  0  0  0  0  0
   -1.2865   19.3835   56.5090 C   0  0  0  0  0  0  0  0  0  0  0  0
   -2.2604   19.7551   57.6042 C   0  0  0  0  0  0  0  0  0  0  0  0
   -1.5143   20.1798   58.8488 C   0  0  0  0  0  0  0  0  0  0  0  0
   -2.4881   20.5514   59.9441 C   0  0  0  0  0  0  0  0  0  0  0  0
   -1.7420   20.9762   61.1887 C   0  0  0  0  0  0  0  0  0  0  0  0
   -2.7159   21.3497   62.2834 C   0  0  0  0  0  0  0  0  0  0  0  0
   -1.9698   21.7744   63.5280 C   0  0  0  0  0  0  0  0  0  0  0  0
   -2.9436   22.1460   64.6232 C   0  0  0  0  0  0  0  0  0  0  0  0
   -2.1975   22.5726   65.8672 C   0  0  0  0  0  0  0  0  0  0  0  0
   -3.1714   22.9423   66.9631 C   0  0  0  0  0  0  0  0  0  0  0  0
   -2.4253   23.3670   68.2077 C   0  0  0  0  0  0  0  0  0  0  0  0
   -3.3991   23.7386   69.3030 C   0  0  0  0  0  0  0  0  0  0  0  0
   -2.6530   24.1653   70.5470 C   0  0  0  0  0  0  0  0  0  0  0  0
   -3.6268   24.5350   71.6429 C   0  0  0  0  0  0  0  0  0  0  0  0
   -2.8807   24.9597   72.8875 C   0  0  0  0  0  0  0  0  0  0  0  0
   -3.8546   25.3313   73.9828 C   0  0  0  0  0  0  0  0  0  0  0  0
   -3.1085   25.7560   75.2274 C   0  0  0  0  0  0  0  0  0  0  0  0
   -4.0823   26.1295   76.3220 C   0  0  0  0  0  0  0  0  0  0  0  0
   -3.3362   26.5523   77.5672 C   0  0  0  0  0  0  0  0  0  0  0  0
   -4.3100   26.9239   78.6625 C   0  0  0  0  0  0  0  0  0  0  0  0
   -3.5639   27.3486   79.9071 C   0  0  0  0  0  0  0  0  0  0  0  0
   -4.5378   27.7221   81.0016 C   0  0  0  0  0  0  0  0  0  0  0  0
   -3.7918   28.1467   82.2458 C   0  0  0  0  0  0  0  0  0  0  0  0
   -4.7660   28.5221   83.3398 C   0  0  0  0  0  0  0  0  0  0  0  0
   -4.0123   28.9440   84.5823 C   0  0  0  0  0  0  0  0  0  0  0  0
   -4.9509   29.3261   85.6964 C   0  0  0  0  0  0  0  0  0  0  0  0
   -4.2313   29.7446   86.9287 C   0  0  0  0  0  0  0  0  0  0  0  0
   -5.1931   30.1172   88.0208 C   0  0  0  0  0  0  0  0  0  0  0  0
   -4.4626   30.5398   89.2650 C   0  0  0  0  0  0  0  0  0  0  0  0
   -0.8650    5.6058    1.4706 H   0  0  0  0  0  0  0  0  0  0  0  0
    0.8239    5.4553    1.9997 H   0  0  0  0  0  0  0  0  0  0  0  0
   -0.4529    4.8993    3.0474 H   0  0  0  0  0  0  0  0  0  0  0  0
   -1.1536    3.1181   -0.2020 H   0  0  0  0  0  0  0  0  0  0  0  0
    1.0341    3.1947    3.9889 H   0  0  0  0  0  0  0  0  0  0  0  0
    2.3293    3.7745    2.9219 H   0  0  0  0  0  0  0  0  0  0  0  0
    4.3524    2.8446    4.9091 H   0  0  0  0  0  0  0  0  0  0  0  0
    4.3551    1.1561    5.4778 H   0  0  0  0  0  0  0  0  0  0  0  0
    2.1022    1.4907    6.4873 H   0  0  0  0  0  0  0  0  0  0  0  0
    2.0994    3.1824    5.9174 H   0  0  0  0  0  0  0  0  0  0  0  0
    1.8900    2.2251    8.6672 H   0  0  0  0  0  0  0  0  0  0  0  0
    1.8853    3.9141    8.0966 H   0  0  0  0  0  0  0  0  0  0  0  0
    3.9149    4.3692    9.4550 H   0  0  0  0  0  0  0  0  0  0  0  0
    3.9195    2.6973   10.0199 H   0  0  0  0  0  0  0  0  0  0  0  0
    1.6541    3.0264   11.0084 H   0  0  0  0  0  0  0  0  0  0  0  0
    1.6495    4.6958   10.4443 H   0  0  0  0  0  0  0  0  0  0  0  0
    3.6752    5.1598   11.8040 H   0  0  0  0  0  0  0  0  0  0  0  0
    3.6798    3.4922   12.3675 H   0  0  0  0  0  0  0  0  0  0  0  0
    1.4311    3.8190   13.3564 H   0  0  0  0  0  0  0  0  0  0  0  0
    1.4265    5.4886   12.7923 H   0  0  0  0  0  0  0  0  0  0  0  0
    3.4484    5.9524   14.1479 H   0  0  0  0  0  0  0  0  0  0  0  0
    3.4530    4.2826   14.7121 H   0  0  0  0  0  0  0  0  0  0  0  0
    1.2024    4.6101   15.6975 H   0  0  0  0  0  0  0  0  0  0  0  0
    1.1997    6.2804   15.1348 H   0  0  0  0  0  0  0  0  0  0  0  0
    3.2217    6.7407   16.4915 H   0  0  0  0  0  0  0  0  0  0  0  0
    3.2244    5.0704   17.0542 H   0  0  0  0  0  0  0  0  0  0  0  0
    0.9746    5.3988   18.0400 H   0  0  0  0  0  0  0  0  0  0  0  0
    0.9719    7.0691   17.4773 H   0  0  0  0  0  0  0  0  0  0  0  0
    2.9939    7.5294   18.8340 H   0  0  0  0  0  0  0  0  0  0  0  0
    2.9966    5.8591   19.3967 H   0  0  0  0  0  0  0  0  0  0  0  0
    0.7469    6.1875   20.3824 H   0  0  0  0  0  0  0  0  0  0  0  0
    0.7442    7.8579   19.8198 H   0  0  0  0  0  0  0  0  0  0  0  0
    2.7662    8.3182   21.1764 H   0  0  0  0  0  0  0  0  0  0  0  0
    2.7689    6.6478   21.7391 H   0  0  0  0  0  0  0  0  0  0  0  0
    0.5192    6.9763   22.7249 H   0  0  0  0  0  0  0  0  0  0  0  0
    0.5165    8.6466   22.1622 H   0  0  0  0  0  0  0  0  0  0  0  0
    2.5385    9.1069   23.5189 H   0  0  0  0  0  0  0  0  0  0  0  0
    2.5412    7.4366   24.0816 H   0  0  0  0  0  0  0  0  0  0  0  0
    0.2914    7.7650   25.0673 H   0  0  0  0  0  0  0  0  0  0  0  0
    0.2887    9.4353   24.5047 H   0  0  0  0  0  0  0  0  0  0  0  0
    2.3107    9.8956   25.8613 H   0  0  0  0  0  0  0  0  0  0  0  0
    2.3134    8.2253   26.4240 H   0  0  0  0  0  0  0  0  0  0  0  0
    0.0647    8.5533   27.4108 H   0  0  0  0  0  0  0  0  0  0  0  0
    0.0601   10.2231   26.8466 H   0  0  0  0  0  0  0  0  0  0  0  0
    2.0821   10.6867   28.2022 H   0  0  0  0  0  0  0  0  0  0  0  0
    2.0867    9.0169   28.7664 H   0  0  0  0  0  0  0  0  0  0  0  0
   -0.1621    9.3435   29.7536 H   0  0  0  0  0  0  0  0  0  0  0  0
   -0.1686   11.0128   29.1879 H   0  0  0  0  0  0  0  0  0  0  0  0
    1.8544   11.4788   30.5420 H   0  0  0  0  0  0  0  0  0  0  0  0
    1.8588    9.8099   31.1089 H   0  0  0  0  0  0  0  0  0  0  0  0
   -0.3910   10.1388   32.0945 H   0  0  0  0  0  0  0  0  0  0  0  0
   -0.3953   11.8077   31.5276 H   0  0  0  0  0  0  0  0  0  0  0  0
    1.6278   12.2723   32.8822 H   0  0  0  0  0  0  0  0  0  0  0  0
    1.6300   10.6038   33.4502 H   0  0  0  0  0  0  0  0  0  0  0  0
   -0.6207   10.9365   34.4337 H   0  0  0  0  0  0  0  0  0  0  0  0
   -0.6210   12.6055   33.8672 H   0  0  0  0  0  0  0  0  0  0  0  0
    1.4010   13.0663   35.2237 H   0  0  0  0  0  0  0  0  0  0  0  0
    1.4013   11.3972   35.7902 H   0  0  0  0  0  0  0  0  0  0  0  0
   -0.8485   11.7309   36.7742 H   0  0  0  0  0  0  0  0  0  0  0  0
   -0.8488   13.3999   36.2077 H   0  0  0  0  0  0  0  0  0  0  0  0
    1.1732   13.8607   37.5642 H   0  0  0  0  0  0  0  0  0  0  0  0
    1.1735   12.1917   38.1308 H   0  0  0  0  0  0  0  0  0  0  0  0
   -1.0762   12.5253   39.1148 H   0  0  0  0  0  0  0  0  0  0  0  0
   -1.0765   14.1944   38.5482 H   0  0  0  0  0  0  0  0  0  0  0  0
    0.9455   14.6551   39.9047 H   0  0  0  0  0  0  0  0  0  0  0  0
    0.9458   12.9861   40.4713 H   0  0  0  0  0  0  0  0  0  0  0  0
   -1.3040   13.3197   41.4553 H   0  0  0  0  0  0  0  0  0  0  0  0
   -1.3042   14.9888   40.8888 H   0  0  0  0  0  0  0  0  0  0  0  0
    0.7188   15.4487   42.2449 H   0  0  0  0  0  0  0  0  0  0  0  0
    0.7169   13.7800   42.8126 H   0  0  0  0  0  0  0  0  0  0  0  0
   -1.5319   14.1165   43.7965 H   0  0  0  0  0  0  0  0  0  0  0  0
   -1.5319   15.7846   43.2273 H   0  0  0  0  0  0  0  0  0  0  0  0
    0.4901   16.2473   44.5832 H   0  0  0  0  0  0  0  0  0  0  0  0
    0.4901   14.5792   45.1524 H   0  0  0  0  0  0  0  0  0  0  0  0
   -1.7596   14.9148   46.1357 H   0  0  0  0  0  0  0  0  0  0  0  0
   -1.7596   16.5829   45.5665 H   0  0  0  0  0  0  0  0  0  0  0  0
    0.2624   17.0455   46.9224 H   0  0  0  0  0  0  0  0  0  0  0  0
    0.2624   15.3774   47.4916 H   0  0  0  0  0  0  0  0  0  0  0  0
   -1.9864   15.7125   48.4760 H   0  0  0  0  0  0  0  0  0  0  0  0
   -1.9883   17.3801   47.9052 H   0  0  0  0  0  0  0  0  0  0  0  0
    0.0326   17.8470   49.2603 H   0  0  0  0  0  0  0  0  0  0  0  0
    0.0367   16.1790   49.8299 H   0  0  0  0  0  0  0  0  0  0  0  0
   -2.2140   16.5103   50.8139 H   0  0  0  0  0  0  0  0  0  0  0  0
   -2.2162   18.1788   50.2458 H   0  0  0  0  0  0  0  0  0  0  0  0
   -0.1953   18.6438   51.6016 H   0  0  0  0  0  0  0  0  0  0  0  0
   -0.1909   16.9749   52.1684 H   0  0  0  0  0  0  0  0  0  0  0  0
   -2.4397   17.3034   53.1551 H   0  0  0  0  0  0  0  0  0  0  0  0
   -2.4460   18.9718   52.5866 H   0  0  0  0  0  0  0  0  0  0  0  0
   -0.4229   19.4397   53.9401 H   0  0  0  0  0  0  0  0  0  0  0  0
   -0.4188   17.7717   54.5097 H   0  0  0  0  0  0  0  0  0  0  0  0
   -2.6685   18.1025   55.4946 H   0  0  0  0  0  0  0  0  0  0  0  0
   -2.6726   19.7705   54.9251 H   0  0  0  0  0  0  0  0  0  0  0  0
   -0.6506   20.2379   56.2793 H   0  0  0  0  0  0  0  0  0  0  0  0
   -0.6466   18.5699   56.8489 H   0  0  0  0  0  0  0  0  0  0  0  0
   -2.8972   18.9012   57.8329 H   0  0  0  0  0  0  0  0  0  0  0  0
   -2.8994   20.5697   57.2648 H   0  0  0  0  0  0  0  0  0  0  0  0
   -0.8774   21.0338   58.6202 H   0  0  0  0  0  0  0  0  0  0  0  0
   -0.8752   19.3653   59.1883 H   0  0  0  0  0  0  0  0  0  0  0  0
   -3.1250   19.6975   60.1727 H   0  0  0  0  0  0  0  0  0  0  0  0
   -3.1272   21.3660   59.6047 H   0  0  0  0  0  0  0  0  0  0  0  0
   -1.1041   21.8292   60.9597 H   0  0  0  0  0  0  0  0  0  0  0  0
   -1.1041   20.1611   61.5290 H   0  0  0  0  0  0  0  0  0  0  0  0
   -3.3538   20.4966   62.5123 H   0  0  0  0  0  0  0  0  0  0  0  0
   -3.3538   22.1647   61.9431 H   0  0  0  0  0  0  0  0  0  0  0  0
   -1.3329   22.6283   63.2993 H   0  0  0  0  0  0  0  0  0  0  0  0
   -1.3307   20.9598   63.8674 H   0  0  0  0  0  0  0  0  0  0  0  0
   -3.5795   21.2916   64.8529 H   0  0  0  0  0  0  0  0  0  0  0  0
   -3.5836   22.9596   64.2833 H   0  0  0  0  0  0  0  0  0  0  0  0
   -1.5627   23.4279   65.6379 H   0  0  0  0  0  0  0  0  0  0  0  0
   -1.5565   21.7595   66.2063 H   0  0  0  0  0  0  0  0  0  0  0  0
   -3.8071   22.0875   67.1914 H   0  0  0  0  0  0  0  0  0  0  0  0
   -3.8115   23.7564   66.6245 H   0  0  0  0  0  0  0  0  0  0  0  0
   -1.7884   24.2210   67.9791 H   0  0  0  0  0  0  0  0  0  0  0  0
   -1.7862   22.5525   68.5471 H   0  0  0  0  0  0  0  0  0  0  0  0
   -4.0350   22.8843   69.5326 H   0  0  0  0  0  0  0  0  0  0  0  0
   -4.0391   24.5522   68.9631 H   0  0  0  0  0  0  0  0  0  0  0  0
   -2.0182   25.0205   70.3177 H   0  0  0  0  0  0  0  0  0  0  0  0
   -2.0119   23.3522   70.8861 H   0  0  0  0  0  0  0  0  0  0  0  0
   -4.2626   23.6801   71.8712 H   0  0  0  0  0  0  0  0  0  0  0  0
   -4.2670   25.3490   71.3043 H   0  0  0  0  0  0  0  0  0  0  0  0
   -2.2439   25.8136   72.6589 H   0  0  0  0  0  0  0  0  0  0  0  0
   -2.2417   24.1451   73.2269 H   0  0  0  0  0  0  0  0  0  0  0  0
   -4.4914   24.4774   74.2114 H   0  0  0  0  0  0  0  0  0  0  0  0
   -4.4936   26.1459   73.6433 H   0  0  0  0  0  0  0  0  0  0  0  0
   -2.4705   26.6090   74.9984 H   0  0  0  0  0  0  0  0  0  0  0  0
   -2.4705   24.9409   75.5676 H   0  0  0  0  0  0  0  0  0  0  0  0
   -4.7212   25.2769   76.5500 H   0  0  0  0  0  0  0  0  0  0  0  0
   -4.7193   26.9456   75.9823 H   0  0  0  0  0  0  0  0  0  0  0  0
   -2.6984   27.4058   77.3396 H   0  0  0  0  0  0  0  0  0  0  0  0
   -2.6981   25.7368   77.9061 H   0  0  0  0  0  0  0  0  0  0  0  0
   -4.9469   26.0700   78.8912 H   0  0  0  0  0  0  0  0  0  0  0  0
   -4.9491   27.7385   78.3231 H   0  0  0  0  0  0  0  0  0  0  0  0
   -2.9260   28.2017   79.6782 H   0  0  0  0  0  0  0  0  0  0  0  0
   -2.9260   26.5336   80.2474 H   0  0  0  0  0  0  0  0  0  0  0  0
   -5.1757   26.8691   81.2307 H   0  0  0  0  0  0  0  0  0  0  0  0
   -5.1757   28.5372   80.6615 H   0  0  0  0  0  0  0  0  0  0  0  0
   -3.1527   28.9990   82.0170 H   0  0  0  0  0  0  0  0  0  0  0  0
   -3.1548   27.3313   82.5874 H   0  0  0  0  0  0  0  0  0  0  0  0
   -5.4055   27.6706   83.5687 H   0  0  0  0  0  0  0  0  0  0  0  0
   -5.4015   29.3389   82.9999 H   0  0  0  0  0  0  0  0  0  0  0  0
   -3.3786   29.7962   84.3564 H   0  0  0  0  0  0  0  0  0  0  0  0
   -3.3827   28.1285   84.9251 H   0  0  0  0  0  0  0  0  0  0  0  0
   -5.6268   28.4777   85.9072 H   0  0  0  0  0  0  0  0  0  0  0  0
   -5.6227   30.1296   85.3439 H   0  0  0  0  0  0  0  0  0  0  0  0
   -3.5988   30.5954   86.6991 H   0  0  0  0  0  0  0  0  0  0  0  0
   -3.6007   28.9291   87.2660 H   0  0  0  0  0  0  0  0  0  0  0  0
   -5.8559   29.2685   88.2543 H   0  0  0  0  0  0  0  0  0  0  0  0
   -5.8541   30.9336   87.6878 H   0  0  0  0  0  0  0  0  0  0  0  0
   -3.8360   29.7205   89.6222 H   0  0  0  0  0  0  0  0  0  0  0  0
   -5.1736   30.8092   90.0547 H   0  0  0  0  0  0  0  0  0  0  0  0
   -3.8342   31.4056   89.0489 H   0  0  0  0  0  0  0  0  0  0  0  0
  1  2  1  0  0  0  0
  1 80  1  0  0  0  0
  1 81  1  0  0  0  0
  1 82  1  0  0  0  0
  2  3  1  0  0  0  0
  2  4  1  0  0  0  0
  3  4  2  0  0  0  0
  3 83  1  0  0  0  0
  4  5  1  0  0  0  0
  5  6  1  0  0  0  0
  5 84  1  0  0  0  0
  5 85  1  0  0  0  0
  6  7  1  0  0  0  0
  7  8  1  0  0  0  0
  7 86  1  0  0  0  0
  7 87  1  0  0  0  0
  8  9  1  0  0  0  0
  8 88  1  0  0  0  0
  8 89  1  0  0  0  0
  9 10  1  0  0  0  0
 10 11  1  0  0  0  0
 10 90  1  0  0  0  0
 10 91  1  0  0  0  0
 11 12  1  0  0  0  0
 11 92  1  0  0  0  0
 11 93  1  0  0  0  0
 12 13  1  0  0  0  0
 12 94  1  0  0  0  0
 12 95  1  0  0  0  0
 13 14  1  0  0  0  0
 13 96  1  0  0  0  0
 13 97  1  0  0  0  0
 14 15  1  0  0  0  0
 14 98  1  0  0  0  0
 14 99  1  0  0  0  0
 15 16  1  0  0  0  0
 15100  1  0  0  0  0
 15101  1  0  0  0  0
 16 17  1  0  0  0  0
 16102  1  0  0  0  0
 16103  1  0  0  0  0
 17 18  1  0  0  0  0
 17104  1  0  0  0  0
 17105  1  0  0  0  0
 18 19  1  0  0  0  0
 18106  1  0  0  0  0
 18107  1  0  0  0  0
 19 20  1  0  0  0  0
 19108  1  0  0  0  0
 19109  1  0  0  0  0
 20 21  1  0  0  0  0
 20110  1  0  0  0  0
 20111  1  0  0  0  0
 21 22  1  0  0  0  0
 21112  1  0  0  0  0
 21113  1  0  0  0  0
 22 23  1  0  0  0  0
 22114  1  0  0  0  0
 22115  1  0  0  0  0
 23 24  1  0  0  0  0
 23116  1  0  0  0  0
 23117  1  0  0  0  0
 24 25  1  0  0  0  0
 24118  1  0  0  0  0
 24119  1  0  0  0  0
 25 26  1  0  0  0  0
 25120  1  0  0  0  0
 25121  1  0  0  0  0
 26 27  1  0  0  0  0
 26122  1  0  0  0  0
 26123  1  0  0  0  0
 27 28  1  0  0  0  0
 27124  1  0  0  0  0
 27125  1  0  0  0  0
 28 29  1  0  0  0  0
 28126  1  0  0  0  0
 28127  1  0  0  0  0
 29 30  1  0  0  0  0
 29128  1  0  0  0  0
 29129  1  0  0  0  0
 30 31  1  0  0  0  0
 30130  1  0  0  0  0
 30131  1  0  0  0  0
 31 32  1  0  0  0  0
 31132  1  0  0  0  0
 31133  1  0  0  0  0
 32 33  1  0  0  0  0
 32134  1  0  0  0  0
 32135  1  0  0  0  0
 33 34  1  0  0  0  0
 33136  1  0  0  0  0
 33137  1  0  0  0  0
 34 35  1  0  0  0  0
 34138  1  0  0  0  0
 34139  1  0  0  0  0
 35 36  1  0  0  0  0
 35140  1  0  0  0  0
 35141  1  0  0  0  0
 36 37  1  0  0  0  0
 36142  1  0  0  0  0
 36143  1  0  0  0  0
 37 38  1  0  0  0  0
 37144  1  0  0  0  0
 37145  1  0  0  0  0
 38 39  1  0  0  0  0
 38146  1  0  0  0  0
 38147  1  0  0  0  0
 39 40  1  0  0  0  0
 39148  1  0  0  0  0
 39149  1  0  0  0  0
 40 41  1  0  0  0  0
 40150  1  0  0  0  0
 40151  1  0  0  0  0
 41 42  1  0  0  0  0
 41152  1  0  0  0  0
 41153  1  0  0  0  0
 42 43  1  0  0  0  0
 42154  1  0  0  0  0
 42155  1  0  0  0  0
 43 44  1  0  0  0  0
 43156  1  0  0  0  0
 43157  1  0  0  0  0
 44 45  1  0  0  0  0
 44158  1  0  0  0  0
 44159  1  0  0  0  0
 45 46  1  0  0  0  0
 45160  1  0  0  0  0
 45161  1  0  0  0  0
 46 47  1  0  0  0  0
 46162  1  0  0  0  0
 46163  1  0  0  0  0
 47 48  1  0  0  0  0
 47164  1  0  0  0  0
 47165  1  0  0  0  0
 48 49  1  0  0  0  0
 48166  1  0  0  0  0
 48167  1  0  0  0  0
 49 50  1  0  0  0  0
 49168  1  0  0  0  0
 49169  1  0  0  0  0
 50 51  1  0  0  0  0
 50170  1  0  0  0  0
 50171  1  0  0  0  0
 51 52  1  0  0  0  0
 51172  1  0  0  0  0
 51173  1  0  0  0  0
 52 53  1  0  0  0  0
 52174  1  0  0  0  0
 52175  1  0  0  0  0
 53 54  1  0  0  0  0
 53176  1  0  0  0  0
 53177  1  0  0  0  0
 54 55  1  0  0  0  0
 54178  1  0  0  0  0
 54179  1  0  0  0  0
 55 56  1  0  0  0  0
 55180  1  0  0  0  0
 55181  1  0  0  0  0
 56 57  1  0  0  0  0
 56182  1  0  0  0  0
 56183  1  0  0  0  0
 57 58  1  0  0  0  0
 57184  1  0  0  0  0
 57185  1  0  0  0  0
 58 59  1  0  0  0  0
 58186  1  0  0  0  0
 58187  1  0  0  0  0
 59 60  1  0  0  0  0
 59188  1  0  0  0  0
 59189  1  0  0  0  0
 60 61  1  0  0  0  0
 60190  1  0  0  0  0
 60191  1  0  0  0  0
 61 62  1  0  0  0  0
 61192  1  0  0  0  0
 61193  1  0  0  0  0
 62 63  1  0  0  0  0
 62194  1  0  0  0  0
 62195  1  0  0  0  0
 63 64  1  0  0  0  0
 63196  1  0  0  0  0
 63197  1  0  0  0  0
 64 65  1  0  0  0  0
 64198  1  0  0  0  0
 64199  1  0  0  0  0
 65 66  1  0  0  0  0
 65200  1  0  0  0  0
 65201  1  0  0  0  0
 66 67  1  0  0  0  0
 66202  1  0  0  0  0
 66203  1  0  0  0  0
 67 68  1  0  0  0  0
 67204  1  0  0  0  0
 67205  1  0  0  0  0
 68 69  1  0  0  0  0
 68206  1  0  0  0  0
 68207  1  0  0  0  0
 69 70  1  0  0  0  0
 69208  1  0  0  0  0
 69209  1  0  0  0  0
 70 71  1  0  0  0  0
 70210  1  0  0  0  0
 70211  1  0  0  0  0
 71 72  1  0  0  0  0
 71212  1  0  0  0  0
 71213  1  0  0  0  0
 72 73  1  0  0  0  0
 72214  1  0  0  0  0
 72215  1  0  0  0  0
 73 74  1  0  0  0  0
 73216  1  0  0  0  0
 73217  1  0  0  0  0
 74 75  1  0  0  0  0
 74218  1  0  0  0  0
 74219  1  0  0  0  0
 75 76  1  0  0  0  0
 75220  1  0  0  0  0
 75221  1  0  0  0  0
 76 77  1  0  0  0  0
 76222  1  0  0  0  0
 76223  1  0  0  0  0
 77 78  1  0  0  0  0
 77224  1  0  0  0  0
 77225  1  0  0  0  0
 78 79  1  0  0  0  0
 78226  1  0  0  0  0
 78227  1  0  0  0  0
 79228  1  0  0  0  0
 79229  1  0  0  0  0
 79230  1  0  0  0  0
M  END
$$$$
