
 OpenBabel04232217023D

104103  0  0  0  0  0  0  0  0999 V2000
   32.0435   16.5268   24.1064 O   0  0  0  0  0  0  0  0  0  0  0  0
   31.6967   15.9911   22.7733 N   0  0  0  0  0  0  0  0  0  0  0  0
   30.0416   15.7748   22.7011 S   0  0  0  0  0  0  0  0  0  0  0  0
   29.3978   17.7322   22.9451 S   0  0  0  0  0  0  0  0  0  0  0  0
   30.1340   18.5232   21.7304 N   0  0  0  0  0  0  0  0  0  0  0  0
   29.7678   18.1445   20.4771 N   0  0  0  0  0  0  0  0  0  0  0  0
   30.4880   18.6882   19.4381 N   0  0  0  0  0  0  0  0  0  0  0  0
   31.8653   18.4881   19.2756 N   0  0  0  0  0  0  0  0  0  0  0  0
   32.3835   17.1980   19.2540 N   0  0  0  0  0  0  0  0  0  0  0  0
   32.0088   16.5688   17.7905 N   0  0  0  0  0  0  0  0  0  0  0  0
   32.4148   17.0890   16.8778 N   0  0  0  0  0  0  0  0  0  0  0  0
   33.8075   17.4154   16.8365 N   0  0  0  0  0  0  0  0  0  0  0  0
   34.5300   16.2550   16.5678 N   0  0  0  0  0  0  0  0  0  0  0  0
   33.9195   15.3820   15.5392 N   0  0  0  0  0  0  0  0  0  0  0  0
   34.3240   15.6169   14.2983 N   0  0  0  0  0  0  0  0  0  0  0  0
   33.7188   14.5023   13.2382 S   0  0  0  0  0  0  0  0  0  0  0  0
   32.0587   14.5626   13.3001 N   0  0  0  0  0  0  0  0  0  0  0  0
   31.3717   16.0432   13.0232 S   0  0  0  0  0  0  0  0  0  0  0  0
   31.7606   17.0467   14.2494 N   0  0  0  0  0  0  0  0  0  0  0  0
   31.1295   18.5773   14.2114 S   0  0  0  0  0  0  0  0  0  0  0  0
   29.4746   18.5642   14.2427 N   0  0  0  0  0  0  0  0  0  0  0  0
   28.7779   17.9139   15.5757 S   0  0  0  0  0  0  0  0  0  0  0  0
   29.1484   18.6836   16.9939 N   0  0  0  0  0  0  0  0  0  0  0  0
   28.1825   17.9862   18.1915 S   0  0  0  0  0  0  0  0  0  0  0  0
   28.6381   16.3303   18.6625 N   0  0  0  0  0  0  0  0  0  0  0  0
   30.0001   15.8482   19.3751 S   0  0  0  0  0  0  0  0  0  0  0  0
   30.9251   14.5664   19.0821 N   0  0  0  0  0  0  0  0  0  0  0  0
   30.5359   13.6235   17.8358 S   0  0  0  0  0  0  0  0  0  0  0  0
   31.3303   14.0900   16.4559 N   0  0  0  0  0  0  0  0  0  0  0  0
   32.8886   13.3928   16.7796 S   0  0  0  0  0  0  0  0  0  0  0  0
   33.7015   14.4115   17.9855 N   0  0  0  0  0  0  0  0  0  0  0  0
   35.6168   14.6320   18.0917 S   0  0  0  0  0  0  0  0  0  0  0  0
   36.0522   16.2035   18.9076 N   0  0  0  0  0  0  0  0  0  0  0  0
   35.5806   15.8824   20.4528 S   0  0  0  0  0  0  0  0  0  0  0  0
   36.4486   17.2400   21.6829 S   0  0  0  0  0  0  0  0  0  0  0  0
   35.7887   19.1556   21.2044 S   0  0  0  0  0  0  0  0  0  0  0  0
   33.7418   19.3220   21.4365 S   0  0  0  0  0  0  0  0  0  0  0  0
   33.0947   21.2584   20.8432 S   0  0  0  0  0  0  0  0  0  0  0  0
   30.9882   21.4081   20.9788 S   0  0  0  0  0  0  0  0  0  0  0  0
   30.3507   23.3198   20.4417 S   0  0  0  0  0  0  0  0  0  0  0  0
   28.2426   23.4079   20.5768 S   0  0  0  0  0  0  0  0  0  0  0  0
   27.6173   25.3575   20.0578 S   0  0  0  0  0  0  0  0  0  0  0  0
   25.5134   25.4559   20.1882 S   0  0  0  0  0  0  0  0  0  0  0  0
   24.8910   27.4039   19.6688 S   0  0  0  0  0  0  0  0  0  0  0  0
   22.7876   27.5018   19.7994 S   0  0  0  0  0  0  0  0  0  0  0  0
   22.1656   29.4495   19.2800 S   0  0  0  0  0  0  0  0  0  0  0  0
   20.0625   29.5472   19.4107 S   0  0  0  0  0  0  0  0  0  0  0  0
   19.4406   31.4948   18.8913 S   0  0  0  0  0  0  0  0  0  0  0  0
   17.3375   31.5925   19.0220 S   0  0  0  0  0  0  0  0  0  0  0  0
   16.7156   33.5401   18.5026 S   0  0  0  0  0  0  0  0  0  0  0  0
   14.6125   33.6378   18.6332 S   0  0  0  0  0  0  0  0  0  0  0  0
   13.9905   35.5854   18.1139 S   0  0  0  0  0  0  0  0  0  0  0  0
   11.8874   35.6831   18.2445 S   0  0  0  0  0  0  0  0  0  0  0  0
   11.2652   37.6237   17.7275 S   0  0  0  0  0  0  0  0  0  0  0  0
    9.1634   37.7282   17.8555 S   0  0  0  0  0  0  0  0  0  0  0  0
    8.5409   39.6745   17.3369 S   0  0  0  0  0  0  0  0  0  0  0  0
    6.4387   39.7668   17.4690 S   0  0  0  0  0  0  0  0  0  0  0  0
    5.8166   41.7129   16.9497 S   0  0  0  0  0  0  0  0  0  0  0  0
    3.7138   41.8161   17.0791 S   0  0  0  0  0  0  0  0  0  0  0  0
    3.0925   43.7657   16.5591 S   0  0  0  0  0  0  0  0  0  0  0  0
    0.9881   43.8640   16.6893 S   0  0  0  0  0  0  0  0  0  0  0  0
    0.3657   45.8118   16.1703 S   0  0  0  0  0  0  0  0  0  0  0  0
   -1.7376   45.9095   16.3010 S   0  0  0  0  0  0  0  0  0  0  0  0
   -2.3595   47.8571   15.7816 S   0  0  0  0  0  0  0  0  0  0  0  0
   -4.4626   47.9548   15.9122 S   0  0  0  0  0  0  0  0  0  0  0  0
   -5.0845   49.9024   15.3929 S   0  0  0  0  0  0  0  0  0  0  0  0
   -7.1876   50.0001   15.5235 S   0  0  0  0  0  0  0  0  0  0  0  0
   -7.8095   51.9477   15.0042 S   0  0  0  0  0  0  0  0  0  0  0  0
   -9.9126   52.0454   15.1348 S   0  0  0  0  0  0  0  0  0  0  0  0
  -10.5344   53.9929   14.6155 S   0  0  0  0  0  0  0  0  0  0  0  0
  -12.6374   54.0905   14.7461 S   0  0  0  0  0  0  0  0  0  0  0  0
  -13.2591   56.0379   14.2268 S   0  0  0  0  0  0  0  0  0  0  0  0
  -15.3616   56.1351   14.3575 S   0  0  0  0  0  0  0  0  0  0  0  0
  -15.9822   58.0817   13.8384 S   0  0  0  0  0  0  0  0  0  0  0  0
  -18.0828   58.1777   13.9693 S   0  0  0  0  0  0  0  0  0  0  0  0
  -18.6989   60.1220   13.4507 S   0  0  0  0  0  0  0  0  0  0  0  0
  -20.7933   60.2138   13.5822 S   0  0  0  0  0  0  0  0  0  0  0  0
  -21.3956   62.1461   13.0504 S   0  0  0  0  0  0  0  0  0  0  0  0
  -23.4675   62.2431   13.2239 S   0  0  0  0  0  0  0  0  0  0  0  0
  -24.0569   64.1602   12.6767 S   0  0  0  0  0  0  0  0  0  0  0  0
  -23.2086   65.4427   14.0444 S   0  0  0  0  0  0  0  0  0  0  0  0
   32.9660   16.8257   24.0044 H   0  0  0  0  0  0  0  0  0  0  0  0
   32.1083   15.0530   22.9023 H   0  0  0  0  0  0  0  0  0  0  0  0
   31.1308   18.3576   21.7206 H   0  0  0  0  0  0  0  0  0  0  0  0
   28.8165   18.0695   20.2920 H   0  0  0  0  0  0  0  0  0  0  0  0
   30.1046   19.6042   19.2350 H   0  0  0  0  0  0  0  0  0  0  0  0
   32.1601   18.9372   20.1293 H   0  0  0  0  0  0  0  0  0  0  0  0
   31.8932   16.6267   20.0350 H   0  0  0  0  0  0  0  0  0  0  0  0
   30.9977   16.4285   17.7957 H   0  0  0  0  0  0  0  0  0  0  0  0
   31.8943   18.1778   16.9228 H   0  0  0  0  0  0  0  0  0  0  0  0
   33.9342   17.5622   17.9040 H   0  0  0  0  0  0  0  0  0  0  0  0
   34.3590   15.8154   17.5728 H   0  0  0  0  0  0  0  0  0  0  0  0
   32.9829   15.0571   15.7218 H   0  0  0  0  0  0  0  0  0  0  0  0
   35.3606   15.4422   14.4827 H   0  0  0  0  0  0  0  0  0  0  0  0
   31.6726   14.0201   14.0701 H   0  0  0  0  0  0  0  0  0  0  0  0
   32.7760   17.0838   14.4382 H   0  0  0  0  0  0  0  0  0  0  0  0
   29.1548   18.0420   13.4241 H   0  0  0  0  0  0  0  0  0  0  0  0
   28.8733   19.6627   16.9250 H   0  0  0  0  0  0  0  0  0  0  0  0
   28.6831   15.8765   17.8234 H   0  0  0  0  0  0  0  0  0  0  0  0
   30.7369   14.1785   19.9791 H   0  0  0  0  0  0  0  0  0  0  0  0
   31.1533   15.1088   16.1907 H   0  0  0  0  0  0  0  0  0  0  0  0
   33.0823   14.6072   18.7973 H   0  0  0  0  0  0  0  0  0  0  0  0
   35.8217   17.1794   18.5785 H   0  0  0  0  0  0  0  0  0  0  0  0
  -23.6445   66.6464   13.6231 H   0  0  0  0  0  0  0  0  0  0  0  0
  1  2  1  0  0  0  0
  1 82  1  0  0  0  0
  2  3  1  0  0  0  0
  2 83  1  0  0  0  0
  3  4  1  0  0  0  0
  4  5  1  0  0  0  0
  5  6  1  0  0  0  0
  5 84  1  0  0  0  0
  6  7  1  0  0  0  0
  6 85  1  0  0  0  0
  7  8  1  0  0  0  0
  7 86  1  0  0  0  0
  8  9  1  0  0  0  0
  8 87  1  0  0  0  0
  9 10  1  0  0  0  0
  9 88  1  0  0  0  0
 10 11  1  0  0  0  0
 10 89  1  0  0  0  0
 11 12  1  0  0  0  0
 11 90  1  0  0  0  0
 12 13  1  0  0  0  0
 12 91  1  0  0  0  0
 13 14  1  0  0  0  0
 13 92  1  0  0  0  0
 14 15  1  0  0  0  0
 14 93  1  0  0  0  0
 15 16  1  0  0  0  0
 15 94  1  0  0  0  0
 16 17  1  0  0  0  0
 17 18  1  0  0  0  0
 17 95  1  0  0  0  0
 18 19  1  0  0  0  0
 19 20  1  0  0  0  0
 19 96  1  0  0  0  0
 20 21  1  0  0  0  0
 21 22  1  0  0  0  0
 21 97  1  0  0  0  0
 22 23  1  0  0  0  0
 23 24  1  0  0  0  0
 23 98  1  0  0  0  0
 24 25  1  0  0  0  0
 25 26  1  0  0  0  0
 25 99  1  0  0  0  0
 26 27  1  0  0  0  0
 27 28  1  0  0  0  0
 27100  1  0  0  0  0
 28 29  1  0  0  0  0
 29 30  1  0  0  0  0
 29101  1  0  0  0  0
 30 31  1  0  0  0  0
 31 32  1  0  0  0  0
 31102  1  0  0  0  0
 32 33  1  0  0  0  0
 33 34  1  0  0  0  0
 33103  1  0  0  0  0
 34 35  1  0  0  0  0
 35 36  1  0  0  0  0
 36 37  1  0  0  0  0
 37 38  1  0  0  0  0
 38 39  1  0  0  0  0
 39 40  1  0  0  0  0
 40 41  1  0  0  0  0
 41 42  1  0  0  0  0
 42 43  1  0  0  0  0
 43 44  1  0  0  0  0
 44 45  1  0  0  0  0
 45 46  1  0  0  0  0
 46 47  1  0  0  0  0
 47 48  1  0  0  0  0
 48 49  1  0  0  0  0
 49 50  1  0  0  0  0
 50 51  1  0  0  0  0
 51 52  1  0  0  0  0
 52 53  1  0  0  0  0
 53 54  1  0  0  0  0
 54 55  1  0  0  0  0
 55 56  1  0  0  0  0
 56 57  1  0  0  0  0
 57 58  1  0  0  0  0
 58 59  1  0  0  0  0
 59 60  1  0  0  0  0
 60 61  1  0  0  0  0
 61 62  1  0  0  0  0
 62 63  1  0  0  0  0
 63 64  1  0  0  0  0
 64 65  1  0  0  0  0
 65 66  1  0  0  0  0
 66 67  1  0  0  0  0
 67 68  1  0  0  0  0
 68 69  1  0  0  0  0
 69 70  1  0  0  0  0
 70 71  1  0  0  0  0
 71 72  1  0  0  0  0
 72 73  1  0  0  0  0
 73 74  1  0  0  0  0
 74 75  1  0  0  0  0
 75 76  1  0  0  0  0
 76 77  1  0  0  0  0
 77 78  1  0  0  0  0
 78 79  1  0  0  0  0
 79 80  1  0  0  0  0
 80 81  1  0  0  0  0
 81104  1  0  0  0  0
M  END
$$$$
