
 OpenBabel04232216423D

 26 26  0  0  0  0  0  0  0  0999 V2000
    0.7543    1.2874    0.1163 C   0  0  0  0  0  0  0  0  0  0  0  0
    0.9863    0.4382   -0.9583 C   0  0  0  0  0  0  0  0  0  0  0  0
    0.3325   -0.7907   -1.0115 C   0  0  0  0  0  0  0  0  0  0  0  0
   -0.5311   -1.1396    0.0243 C   0  0  0  0  0  0  0  0  0  0  0  0
   -1.2559   -2.4612    0.0307 C   0  0  0  0  0  0  0  0  0  0  0  0
   -0.3411   -3.6887    0.0248 C   0  0  0  0  0  0  0  0  0  0  0  0
    0.5871   -3.7698    1.2407 C   0  0  0  0  0  0  0  0  0  0  0  0
    1.4575   -5.0248    1.1624 C   0  0  0  0  0  0  0  0  0  0  0  0
    2.4071   -5.1295    2.3425 C   0  0  0  0  0  0  0  0  0  0  0  0
   -0.7666   -0.3182    1.0772 N   0  0  0  0  0  0  0  0  0  0  0  0
   -0.1250    0.8693    1.0986 C   0  0  0  0  0  0  0  0  0  0  0  0
    1.2454    2.2512    0.1867 H   0  0  0  0  0  0  0  0  0  0  0  0
    1.6717    0.7286   -1.7489 H   0  0  0  0  0  0  0  0  0  0  0  0
    0.5051   -1.4623   -1.8460 H   0  0  0  0  0  0  0  0  0  0  0  0
   -1.9118   -2.4975   -0.8480 H   0  0  0  0  0  0  0  0  0  0  0  0
   -1.9138   -2.5094    0.9077 H   0  0  0  0  0  0  0  0  0  0  0  0
    0.2575   -3.7062   -0.8936 H   0  0  0  0  0  0  0  0  0  0  0  0
   -0.9736   -4.5854    0.0013 H   0  0  0  0  0  0  0  0  0  0  0  0
   -0.0069   -3.7848    2.1620 H   0  0  0  0  0  0  0  0  0  0  0  0
    1.2338   -2.8858    1.2851 H   0  0  0  0  0  0  0  0  0  0  0  0
    2.0415   -5.0109    0.2352 H   0  0  0  0  0  0  0  0  0  0  0  0
    0.8214   -5.9169    1.1305 H   0  0  0  0  0  0  0  0  0  0  0  0
    3.0813   -4.2675    2.3826 H   0  0  0  0  0  0  0  0  0  0  0  0
    3.0179   -6.0338    2.2545 H   0  0  0  0  0  0  0  0  0  0  0  0
    1.8563   -5.1808    3.2865 H   0  0  0  0  0  0  0  0  0  0  0  0
   -0.3455    1.4955    1.9571 H   0  0  0  0  0  0  0  0  0  0  0  0
  1  2  1  0  0  0  0
  1 11  2  0  0  0  0
  1 12  1  0  0  0  0
  2  3  2  0  0  0  0
  2 13  1  0  0  0  0
  3  4  1  0  0  0  0
  3 14  1  0  0  0  0
  4  5  1  0  0  0  0
  4 10  2  0  0  0  0
  5  6  1  0  0  0  0
  5 15  1  0  0  0  0
  5 16  1  0  0  0  0
  6  7  1  0  0  0  0
  6 17  1  0  0  0  0
  6 18  1  0  0  0  0
  7  8  1  0  0  0  0
  7 19  1  0  0  0  0
  7 20  1  0  0  0  0
  8  9  1  0  0  0  0
  8 21  1  0  0  0  0
  8 22  1  0  0  0  0
  9 23  1  0  0  0  0
  9 24  1  0  0  0  0
  9 25  1  0  0  0  0
 10 11  1  0  0  0  0
 11 26  1  0  0  0  0
M  END
$$$$
