
 OpenBabel04232216543D

235234  0  0  0  0  0  0  0  0999 V2000
    6.7351   -6.8980  -10.4637 C   0  0  0  0  0  0  0  0  0  0  0  0
    8.2489   -6.8456  -10.4896 C   0  0  0  0  0  0  0  0  0  0  0  0
    8.7358   -5.4427  -10.8076 C   0  0  0  0  0  0  0  0  0  0  0  0
   10.2575   -5.4124  -10.8467 C   0  0  0  0  0  0  0  0  0  0  0  0
   10.6568   -4.0582  -11.1987 N   0  0  0  0  0  0  0  0  0  0  0  0
   12.0822   -3.9794  -11.2330 N   0  0  0  0  0  0  0  0  0  0  0  0
   12.5125   -2.6475  -11.5161 N   0  0  0  0  0  0  0  0  0  0  0  0
   12.1609   -1.6860  -10.5091 N   0  0  0  0  0  0  0  0  0  0  0  0
   12.6659   -2.0169   -9.2276 N   0  0  0  0  0  0  0  0  0  0  0  0
   14.1201   -2.0440   -9.2432 C   0  0  0  0  0  0  0  0  0  0  0  0
   14.5275   -2.4830   -7.9295 N   0  0  0  0  0  0  0  0  0  0  0  0
   14.0777   -3.8034   -7.6796 N   0  0  0  0  0  0  0  0  0  0  0  0
   14.5224   -4.2097   -6.4132 N   0  0  0  0  0  0  0  0  0  0  0  0
   14.0773   -5.5418   -6.1032 N   0  0  0  0  0  0  0  0  0  0  0  0
   14.5498   -6.5184   -7.0700 N   0  0  0  0  0  0  0  0  0  0  0  0
   16.0153   -6.5008   -7.0779 C   0  0  0  0  0  0  0  0  0  0  0  0
   16.5189   -7.4521   -8.1470 C   0  0  0  0  0  0  0  0  0  0  0  0
   18.0411   -7.4438   -8.1598 C   0  0  0  0  0  0  0  0  0  0  0  0
   18.5588   -8.4027   -9.2132 C   0  0  0  0  0  0  0  0  0  0  0  0
   20.0785   -8.4021   -9.2177 C   0  0  0  0  0  0  0  0  0  0  0  0
   20.5896   -9.3770  -10.2604 C   0  0  0  0  0  0  0  0  0  0  0  0
   22.1057   -9.3799  -10.2627 C   0  0  0  0  0  0  0  0  0  0  0  0
   22.6177  -10.3558  -11.3115 C   0  0  0  0  0  0  0  0  0  0  0  0
   24.1343  -10.3596  -11.3127 C   0  0  0  0  0  0  0  0  0  0  0  0
   24.6451  -11.3328  -12.3581 C   0  0  0  0  0  0  0  0  0  0  0  0
   26.1628  -11.3370  -12.3619 C   0  0  0  0  0  0  0  0  0  0  0  0
   26.6729  -12.3098  -13.4077 C   0  0  0  0  0  0  0  0  0  0  0  0
   28.1895  -12.3130  -13.4112 C   0  0  0  0  0  0  0  0  0  0  0  0
   28.6996  -13.2860  -14.4569 C   0  0  0  0  0  0  0  0  0  0  0  0
   30.2162  -13.2893  -14.4604 C   0  0  0  0  0  0  0  0  0  0  0  0
   30.7263  -14.2622  -15.5061 C   0  0  0  0  0  0  0  0  0  0  0  0
   32.2429  -14.2654  -15.5097 C   0  0  0  0  0  0  0  0  0  0  0  0
   32.7530  -15.2383  -16.5554 C   0  0  0  0  0  0  0  0  0  0  0  0
   34.2696  -15.2402  -16.5602 C   0  0  0  0  0  0  0  0  0  0  0  0
   34.7796  -16.2130  -17.6059 C   0  0  0  0  0  0  0  0  0  0  0  0
   36.2962  -16.2161  -17.6095 C   0  0  0  0  0  0  0  0  0  0  0  0
   36.8063  -17.1877  -18.6565 C   0  0  0  0  0  0  0  0  0  0  0  0
   38.3229  -17.1895  -18.6613 C   0  0  0  0  0  0  0  0  0  0  0  0
   38.8329  -18.1623  -19.7071 C   0  0  0  0  0  0  0  0  0  0  0  0
   40.3495  -18.1655  -19.7107 C   0  0  0  0  0  0  0  0  0  0  0  0
   40.8596  -19.1370  -20.7576 C   0  0  0  0  0  0  0  0  0  0  0  0
   42.3762  -19.1403  -20.7612 C   0  0  0  0  0  0  0  0  0  0  0  0
   42.8863  -20.1115  -21.8081 C   0  0  0  0  0  0  0  0  0  0  0  0
   44.4028  -20.1151  -21.8119 C   0  0  0  0  0  0  0  0  0  0  0  0
   44.9130  -21.0863  -22.8587 C   0  0  0  0  0  0  0  0  0  0  0  0
   46.4295  -21.0897  -22.8624 C   0  0  0  0  0  0  0  0  0  0  0  0
   46.9396  -22.0610  -23.9094 C   0  0  0  0  0  0  0  0  0  0  0  0
   48.4562  -22.0643  -23.9128 C   0  0  0  0  0  0  0  0  0  0  0  0
   48.9662  -23.0357  -24.9600 C   0  0  0  0  0  0  0  0  0  0  0  0
   50.4829  -23.0405  -24.9621 C   0  0  0  0  0  0  0  0  0  0  0  0
   50.9929  -24.0119  -26.0091 C   0  0  0  0  0  0  0  0  0  0  0  0
   52.5095  -24.0180  -26.0100 C   0  0  0  0  0  0  0  0  0  0  0  0
   53.0195  -24.9881  -27.0583 C   0  0  0  0  0  0  0  0  0  0  0  0
   54.5362  -24.9929  -27.0604 C   0  0  0  0  0  0  0  0  0  0  0  0
   55.0462  -25.9642  -28.1075 C   0  0  0  0  0  0  0  0  0  0  0  0
   56.5628  -25.9674  -28.1110 C   0  0  0  0  0  0  0  0  0  0  0  0
   57.0729  -26.9374  -29.1594 C   0  0  0  0  0  0  0  0  0  0  0  0
   58.5895  -26.9392  -29.1643 C   0  0  0  0  0  0  0  0  0  0  0  0
   59.0996  -27.9091  -30.2128 C   0  0  0  0  0  0  0  0  0  0  0  0
   60.6161  -27.9094  -30.2190 C   0  0  0  0  0  0  0  0  0  0  0  0
   61.1262  -28.8792  -31.2674 C   0  0  0  0  0  0  0  0  0  0  0  0
   62.6426  -28.8797  -31.2738 C   0  0  0  0  0  0  0  0  0  0  0  0
   63.1531  -29.8492  -32.3220 C   0  0  0  0  0  0  0  0  0  0  0  0
   64.6693  -29.8500  -32.3288 C   0  0  0  0  0  0  0  0  0  0  0  0
   65.1797  -30.8197  -33.3768 C   0  0  0  0  0  0  0  0  0  0  0  0
   66.6962  -30.8201  -33.3833 C   0  0  0  0  0  0  0  0  0  0  0  0
   67.2063  -31.7902  -34.4315 C   0  0  0  0  0  0  0  0  0  0  0  0
   68.7228  -31.7903  -34.4378 C   0  0  0  0  0  0  0  0  0  0  0  0
   69.2330  -32.7603  -35.4862 C   0  0  0  0  0  0  0  0  0  0  0  0
   70.7496  -32.7592  -35.4939 C   0  0  0  0  0  0  0  0  0  0  0  0
   71.2597  -33.7291  -36.5423 C   0  0  0  0  0  0  0  0  0  0  0  0
   72.7765  -33.7280  -36.5501 C   0  0  0  0  0  0  0  0  0  0  0  0
   73.2870  -34.6981  -37.5986 C   0  0  0  0  0  0  0  0  0  0  0  0
   74.8039  -34.6973  -37.6067 C   0  0  0  0  0  0  0  0  0  0  0  0
   75.3153  -35.6675  -38.6555 C   0  0  0  0  0  0  0  0  0  0  0  0
   76.8336  -35.6660  -38.6656 C   0  0  0  0  0  0  0  0  0  0  0  0
   77.3471  -36.6361  -39.7144 C   0  0  0  0  0  0  0  0  0  0  0  0
   78.8673  -36.6360  -39.7261 C   0  0  0  0  0  0  0  0  0  0  0  0
   79.3842  -37.6059  -40.7774 C   0  0  0  0  0  0  0  0  0  0  0  0
   80.9066  -37.6152  -40.7966 C   0  0  0  0  0  0  0  0  0  0  0  0
   81.4197  -38.5829  -41.8456 C   0  0  0  0  0  0  0  0  0  0  0  0
    6.3948   -7.9119  -10.2355 H   0  0  0  0  0  0  0  0  0  0  0  0
    6.3175   -6.6053  -11.4336 H   0  0  0  0  0  0  0  0  0  0  0  0
    6.3345   -6.2205   -9.7008 H   0  0  0  0  0  0  0  0  0  0  0  0
    8.6247   -7.5489  -11.2437 H   0  0  0  0  0  0  0  0  0  0  0  0
    8.6445   -7.1663   -9.5183 H   0  0  0  0  0  0  0  0  0  0  0  0
    8.3625   -4.7359  -10.0524 H   0  0  0  0  0  0  0  0  0  0  0  0
    8.3317   -5.1173  -11.7763 H   0  0  0  0  0  0  0  0  0  0  0  0
   10.6250   -6.1164  -11.6010 H   0  0  0  0  0  0  0  0  0  0  0  0
   10.6692   -5.6998   -9.8708 H   0  0  0  0  0  0  0  0  0  0  0  0
   10.3734   -3.4295  -10.4420 H   0  0  0  0  0  0  0  0  0  0  0  0
   12.4719   -4.5972  -11.9395 H   0  0  0  0  0  0  0  0  0  0  0  0
   12.1471   -2.3367  -12.4108 H   0  0  0  0  0  0  0  0  0  0  0  0
   11.1442   -1.6265  -10.4496 H   0  0  0  0  0  0  0  0  0  0  0  0
   12.3661   -2.9431   -8.9305 H   0  0  0  0  0  0  0  0  0  0  0  0
   14.5154   -1.0492   -9.4610 H   0  0  0  0  0  0  0  0  0  0  0  0
   14.5217   -2.7374   -9.9945 H   0  0  0  0  0  0  0  0  0  0  0  0
   14.0980   -1.8518   -7.2624 H   0  0  0  0  0  0  0  0  0  0  0  0
   14.4339   -4.4308   -8.3924 H   0  0  0  0  0  0  0  0  0  0  0  0
   14.1743   -3.5470   -5.7325 H   0  0  0  0  0  0  0  0  0  0  0  0
   13.0632   -5.5178   -6.1532 H   0  0  0  0  0  0  0  0  0  0  0  0
   14.2101   -6.2257   -7.9773 H   0  0  0  0  0  0  0  0  0  0  0  0
   16.3989   -6.7983   -6.0933 H   0  0  0  0  0  0  0  0  0  0  0  0
   16.4193   -5.5054   -7.3088 H   0  0  0  0  0  0  0  0  0  0  0  0
   16.1414   -7.1491   -9.1343 H   0  0  0  0  0  0  0  0  0  0  0  0
   16.1495   -8.4688   -7.9526 H   0  0  0  0  0  0  0  0  0  0  0  0
   18.4203   -7.7261   -7.1715 H   0  0  0  0  0  0  0  0  0  0  0  0
   18.4089   -6.4296   -8.3684 H   0  0  0  0  0  0  0  0  0  0  0  0
   18.1786   -8.1206  -10.1966 H   0  0  0  0  0  0  0  0  0  0  0  0
   18.1887   -9.4188   -9.0007 H   0  0  0  0  0  0  0  0  0  0  0  0
   20.4508   -8.6861   -8.2275 H   0  0  0  0  0  0  0  0  0  0  0  0
   20.4506   -7.3910   -9.4281 H   0  0  0  0  0  0  0  0  0  0  0  0
   20.2056   -9.1019  -11.2534 H   0  0  0  0  0  0  0  0  0  0  0  0
   20.2178  -10.3864  -10.0393 H   0  0  0  0  0  0  0  0  0  0  0  0
   22.4734   -9.6607   -9.2712 H   0  0  0  0  0  0  0  0  0  0  0  0
   22.4834   -8.3728  -10.4761 H   0  0  0  0  0  0  0  0  0  0  0  0
   22.2422  -10.0684  -12.2992 H   0  0  0  0  0  0  0  0  0  0  0  0
   22.2399  -11.3618  -11.0964 H   0  0  0  0  0  0  0  0  0  0  0  0
   24.5104  -10.6455  -10.3221 H   0  0  0  0  0  0  0  0  0  0  0  0
   24.5128   -9.3520  -11.5245 H   0  0  0  0  0  0  0  0  0  0  0  0
   24.2700  -11.0490  -13.3492 H   0  0  0  0  0  0  0  0  0  0  0  0
   24.2700  -12.3418  -12.1459 H   0  0  0  0  0  0  0  0  0  0  0  0
   26.5385  -11.6214  -11.3714 H   0  0  0  0  0  0  0  0  0  0  0  0
   26.5386  -10.3285  -12.5744 H   0  0  0  0  0  0  0  0  0  0  0  0
   26.2970  -12.0253  -14.3983 H   0  0  0  0  0  0  0  0  0  0  0  0
   26.2971  -13.3183  -13.1953 H   0  0  0  0  0  0  0  0  0  0  0  0
   28.5653  -12.5975  -12.4206 H   0  0  0  0  0  0  0  0  0  0  0  0
   28.5653  -11.3045  -13.6237 H   0  0  0  0  0  0  0  0  0  0  0  0
   28.3238  -13.0015  -15.4476 H   0  0  0  0  0  0  0  0  0  0  0  0
   28.3238  -14.2945  -14.2445 H   0  0  0  0  0  0  0  0  0  0  0  0
   30.5921  -13.5737  -13.4698 H   0  0  0  0  0  0  0  0  0  0  0  0
   30.5920  -12.2807  -14.6728 H   0  0  0  0  0  0  0  0  0  0  0  0
   30.3504  -13.9776  -16.4967 H   0  0  0  0  0  0  0  0  0  0  0  0
   30.3505  -15.2707  -15.2937 H   0  0  0  0  0  0  0  0  0  0  0  0
   32.6189  -14.5498  -14.5191 H   0  0  0  0  0  0  0  0  0  0  0  0
   32.6186  -13.2568  -15.7222 H   0  0  0  0  0  0  0  0  0  0  0  0
   32.3761  -14.9546  -17.5458 H   0  0  0  0  0  0  0  0  0  0  0  0
   32.3782  -16.2470  -16.3421 H   0  0  0  0  0  0  0  0  0  0  0  0
   34.6465  -15.5239  -15.5697 H   0  0  0  0  0  0  0  0  0  0  0  0
   34.6443  -14.2314  -16.7734 H   0  0  0  0  0  0  0  0  0  0  0  0
   34.4036  -15.9284  -18.5964 H   0  0  0  0  0  0  0  0  0  0  0  0
   34.4040  -17.2216  -17.3936 H   0  0  0  0  0  0  0  0  0  0  0  0
   36.6721  -16.5019  -16.6193 H   0  0  0  0  0  0  0  0  0  0  0  0
   36.6720  -15.2073  -17.8206 H   0  0  0  0  0  0  0  0  0  0  0  0
   36.4295  -16.9027  -19.6466 H   0  0  0  0  0  0  0  0  0  0  0  0
   36.4315  -18.1967  -18.4446 H   0  0  0  0  0  0  0  0  0  0  0  0
   38.6998  -17.4733  -17.6709 H   0  0  0  0  0  0  0  0  0  0  0  0
   38.6976  -16.1807  -18.8744 H   0  0  0  0  0  0  0  0  0  0  0  0
   38.4570  -17.8777  -20.6976 H   0  0  0  0  0  0  0  0  0  0  0  0
   38.4573  -19.1709  -19.4948 H   0  0  0  0  0  0  0  0  0  0  0  0
   40.7254  -18.4513  -18.7204 H   0  0  0  0  0  0  0  0  0  0  0  0
   40.7254  -17.1567  -19.9218 H   0  0  0  0  0  0  0  0  0  0  0  0
   40.4837  -18.8512  -21.7480 H   0  0  0  0  0  0  0  0  0  0  0  0
   40.4838  -20.1459  -20.5466 H   0  0  0  0  0  0  0  0  0  0  0  0
   42.7521  -19.4262  -19.7708 H   0  0  0  0  0  0  0  0  0  0  0  0
   42.7520  -18.1313  -20.9721 H   0  0  0  0  0  0  0  0  0  0  0  0
   42.5104  -19.8256  -22.7987 H   0  0  0  0  0  0  0  0  0  0  0  0
   42.5103  -21.1207  -21.5972 H   0  0  0  0  0  0  0  0  0  0  0  0
   44.7787  -20.4009  -20.8213 H   0  0  0  0  0  0  0  0  0  0  0  0
   44.7788  -19.1059  -22.0228 H   0  0  0  0  0  0  0  0  0  0  0  0
   44.5371  -20.8005  -23.8492 H   0  0  0  0  0  0  0  0  0  0  0  0
   44.5371  -22.0955  -22.6476 H   0  0  0  0  0  0  0  0  0  0  0  0
   46.8055  -21.3757  -21.8720 H   0  0  0  0  0  0  0  0  0  0  0  0
   46.8054  -20.0806  -23.0733 H   0  0  0  0  0  0  0  0  0  0  0  0
   46.5638  -21.7750  -24.8997 H   0  0  0  0  0  0  0  0  0  0  0  0
   46.5636  -23.0700  -23.6985 H   0  0  0  0  0  0  0  0  0  0  0  0
   48.8318  -22.3504  -22.9226 H   0  0  0  0  0  0  0  0  0  0  0  0
   48.8321  -21.0556  -24.1238 H   0  0  0  0  0  0  0  0  0  0  0  0
   48.5916  -22.7489  -25.9504 H   0  0  0  0  0  0  0  0  0  0  0  0
   48.5893  -24.0443  -24.7498 H   0  0  0  0  0  0  0  0  0  0  0  0
   50.8574  -23.3273  -23.9716 H   0  0  0  0  0  0  0  0  0  0  0  0
   50.8599  -22.0319  -25.1722 H   0  0  0  0  0  0  0  0  0  0  0  0
   50.6193  -23.7242  -26.9997 H   0  0  0  0  0  0  0  0  0  0  0  0
   50.6149  -25.0202  -25.7999 H   0  0  0  0  0  0  0  0  0  0  0  0
   52.8830  -24.3068  -25.0198 H   0  0  0  0  0  0  0  0  0  0  0  0
   52.8876  -23.0094  -26.2180 H   0  0  0  0  0  0  0  0  0  0  0  0
   52.6451  -24.7000  -28.0483 H   0  0  0  0  0  0  0  0  0  0  0  0
   52.6424  -25.9969  -26.8495 H   0  0  0  0  0  0  0  0  0  0  0  0
   54.9109  -25.2796  -26.0700 H   0  0  0  0  0  0  0  0  0  0  0  0
   54.9130  -23.9842  -27.2705 H   0  0  0  0  0  0  0  0  0  0  0  0
   54.6705  -25.6781  -29.0977 H   0  0  0  0  0  0  0  0  0  0  0  0
   54.6705  -26.9730  -27.8967 H   0  0  0  0  0  0  0  0  0  0  0  0
   56.9387  -26.2546  -27.1212 H   0  0  0  0  0  0  0  0  0  0  0  0
   56.9386  -24.9583  -28.3207 H   0  0  0  0  0  0  0  0  0  0  0  0
   56.6960  -26.6509  -30.1490 H   0  0  0  0  0  0  0  0  0  0  0  0
   56.6982  -27.9468  -28.9491 H   0  0  0  0  0  0  0  0  0  0  0  0
   58.9666  -27.2256  -28.1747 H   0  0  0  0  0  0  0  0  0  0  0  0
   58.9641  -25.9297  -29.3747 H   0  0  0  0  0  0  0  0  0  0  0  0
   58.7216  -27.6233  -31.2022 H   0  0  0  0  0  0  0  0  0  0  0  0
   58.7260  -28.9187  -30.0017 H   0  0  0  0  0  0  0  0  0  0  0  0
   60.9943  -28.1951  -29.2295 H   0  0  0  0  0  0  0  0  0  0  0  0
   60.9898  -26.8995  -30.4302 H   0  0  0  0  0  0  0  0  0  0  0  0
   60.7479  -28.5935  -32.2570 H   0  0  0  0  0  0  0  0  0  0  0  0
   60.7526  -29.8892  -31.0562 H   0  0  0  0  0  0  0  0  0  0  0  0
   63.0210  -29.1652  -30.2840 H   0  0  0  0  0  0  0  0  0  0  0  0
   63.0163  -27.8693  -31.4852 H   0  0  0  0  0  0  0  0  0  0  0  0
   62.7746  -29.5636  -33.3119 H   0  0  0  0  0  0  0  0  0  0  0  0
   62.7792  -30.8597  -32.1107 H   0  0  0  0  0  0  0  0  0  0  0  0
   65.0479  -30.1358  -31.3385 H   0  0  0  0  0  0  0  0  0  0  0  0
   65.0431  -28.8398  -32.5399 H   0  0  0  0  0  0  0  0  0  0  0  0
   64.8014  -30.5337  -34.3670 H   0  0  0  0  0  0  0  0  0  0  0  0
   64.8061  -31.8298  -33.1658 H   0  0  0  0  0  0  0  0  0  0  0  0
   67.0745  -31.1056  -32.3935 H   0  0  0  0  0  0  0  0  0  0  0  0
   67.0697  -29.8102  -33.5946 H   0  0  0  0  0  0  0  0  0  0  0  0
   66.8280  -31.5047  -35.4209 H   0  0  0  0  0  0  0  0  0  0  0  0
   66.8328  -32.7998  -34.2202 H   0  0  0  0  0  0  0  0  0  0  0  0
   69.1011  -32.0758  -33.4484 H   0  0  0  0  0  0  0  0  0  0  0  0
   69.0961  -30.7805  -34.6491 H   0  0  0  0  0  0  0  0  0  0  0  0
   68.8537  -32.4755  -36.4755 H   0  0  0  0  0  0  0  0  0  0  0  0
   68.8605  -33.7702  -35.2742 H   0  0  0  0  0  0  0  0  0  0  0  0
   71.1289  -33.0439  -34.5046 H   0  0  0  0  0  0  0  0  0  0  0  0
   71.1218  -31.7492  -35.7058 H   0  0  0  0  0  0  0  0  0  0  0  0
   70.8803  -33.4443  -37.5315 H   0  0  0  0  0  0  0  0  0  0  0  0
   70.8874  -34.7390  -36.3303 H   0  0  0  0  0  0  0  0  0  0  0  0
   73.1557  -34.0127  -35.5608 H   0  0  0  0  0  0  0  0  0  0  0  0
   73.1486  -32.7181  -36.7620 H   0  0  0  0  0  0  0  0  0  0  0  0
   72.9073  -34.4132  -38.5876 H   0  0  0  0  0  0  0  0  0  0  0  0
   72.9144  -35.7079  -37.3865 H   0  0  0  0  0  0  0  0  0  0  0  0
   75.1830  -34.9818  -36.6173 H   0  0  0  0  0  0  0  0  0  0  0  0
   75.1757  -33.6871  -37.8185 H   0  0  0  0  0  0  0  0  0  0  0  0
   74.9342  -35.3833  -39.6441 H   0  0  0  0  0  0  0  0  0  0  0  0
   74.9434  -36.6773  -38.4423 H   0  0  0  0  0  0  0  0  0  0  0  0
   77.2125  -35.9491  -37.6759 H   0  0  0  0  0  0  0  0  0  0  0  0
   77.2031  -34.6552  -38.8775 H   0  0  0  0  0  0  0  0  0  0  0  0
   76.9650  -36.3518  -40.7026 H   0  0  0  0  0  0  0  0  0  0  0  0
   76.9745  -37.6456  -39.5013 H   0  0  0  0  0  0  0  0  0  0  0  0
   79.2452  -36.9202  -38.7364 H   0  0  0  0  0  0  0  0  0  0  0  0
   79.2361  -35.6246  -39.9364 H   0  0  0  0  0  0  0  0  0  0  0  0
   79.0000  -37.3185  -41.7640 H   0  0  0  0  0  0  0  0  0  0  0  0
   79.0072  -38.6141  -40.5653 H   0  0  0  0  0  0  0  0  0  0  0  0
   81.2901  -37.9040  -39.8111 H   0  0  0  0  0  0  0  0  0  0  0  0
   81.2830  -36.6080  -41.0101 H   0  0  0  0  0  0  0  0  0  0  0  0
   81.0732  -39.6002  -41.6368 H   0  0  0  0  0  0  0  0  0  0  0  0
   82.5127  -38.5864  -41.8557 H   0  0  0  0  0  0  0  0  0  0  0  0
   81.0661  -38.2979  -42.8417 H   0  0  0  0  0  0  0  0  0  0  0  0
  1  2  1  0  0  0  0
  1 82  1  0  0  0  0
  1 83  1  0  0  0  0
  1 84  1  0  0  0  0
  2  3  1  0  0  0  0
  2 85  1  0  0  0  0
  2 86  1  0  0  0  0
  3  4  1  0  0  0  0
  3 87  1  0  0  0  0
  3 88  1  0  0  0  0
  4  5  1  0  0  0  0
  4 89  1  0  0  0  0
  4 90  1  0  0  0  0
  5  6  1  0  0  0  0
  5 91  1  0  0  0  0
  6  7  1  0  0  0  0
  6 92  1  0  0  0  0
  7  8  1  0  0  0  0
  7 93  1  0  0  0  0
  8  9  1  0  0  0  0
  8 94  1  0  0  0  0
  9 10  1  0  0  0  0
  9 95  1  0  0  0  0
 10 11  1  0  0  0  0
 10 96  1  0  0  0  0
 10 97  1  0  0  0  0
 11 12  1  0  0  0  0
 11 98  1  0  0  0  0
 12 13  1  0  0  0  0
 12 99  1  0  0  0  0
 13 14  1  0  0  0  0
 13100  1  0  0  0  0
 14 15  1  0  0  0  0
 14101  1  0  0  0  0
 15 16  1  0  0  0  0
 15102  1  0  0  0  0
 16 17  1  0  0  0  0
 16103  1  0  0  0  0
 16104  1  0  0  0  0
 17 18  1  0  0  0  0
 17105  1  0  0  0  0
 17106  1  0  0  0  0
 18 19  1  0  0  0  0
 18107  1  0  0  0  0
 18108  1  0  0  0  0
 19 20  1  0  0  0  0
 19109  1  0  0  0  0
 19110  1  0  0  0  0
 20 21  1  0  0  0  0
 20111  1  0  0  0  0
 20112  1  0  0  0  0
 21 22  1  0  0  0  0
 21113  1  0  0  0  0
 21114  1  0  0  0  0
 22 23  1  0  0  0  0
 22115  1  0  0  0  0
 22116  1  0  0  0  0
 23 24  1  0  0  0  0
 23117  1  0  0  0  0
 23118  1  0  0  0  0
 24 25  1  0  0  0  0
 24119  1  0  0  0  0
 24120  1  0  0  0  0
 25 26  1  0  0  0  0
 25121  1  0  0  0  0
 25122  1  0  0  0  0
 26 27  1  0  0  0  0
 26123  1  0  0  0  0
 26124  1  0  0  0  0
 27 28  1  0  0  0  0
 27125  1  0  0  0  0
 27126  1  0  0  0  0
 28 29  1  0  0  0  0
 28127  1  0  0  0  0
 28128  1  0  0  0  0
 29 30  1  0  0  0  0
 29129  1  0  0  0  0
 29130  1  0  0  0  0
 30 31  1  0  0  0  0
 30131  1  0  0  0  0
 30132  1  0  0  0  0
 31 32  1  0  0  0  0
 31133  1  0  0  0  0
 31134  1  0  0  0  0
 32 33  1  0  0  0  0
 32135  1  0  0  0  0
 32136  1  0  0  0  0
 33 34  1  0  0  0  0
 33137  1  0  0  0  0
 33138  1  0  0  0  0
 34 35  1  0  0  0  0
 34139  1  0  0  0  0
 34140  1  0  0  0  0
 35 36  1  0  0  0  0
 35141  1  0  0  0  0
 35142  1  0  0  0  0
 36 37  1  0  0  0  0
 36143  1  0  0  0  0
 36144  1  0  0  0  0
 37 38  1  0  0  0  0
 37145  1  0  0  0  0
 37146  1  0  0  0  0
 38 39  1  0  0  0  0
 38147  1  0  0  0  0
 38148  1  0  0  0  0
 39 40  1  0  0  0  0
 39149  1  0  0  0  0
 39150  1  0  0  0  0
 40 41  1  0  0  0  0
 40151  1  0  0  0  0
 40152  1  0  0  0  0
 41 42  1  0  0  0  0
 41153  1  0  0  0  0
 41154  1  0  0  0  0
 42 43  1  0  0  0  0
 42155  1  0  0  0  0
 42156  1  0  0  0  0
 43 44  1  0  0  0  0
 43157  1  0  0  0  0
 43158  1  0  0  0  0
 44 45  1  0  0  0  0
 44159  1  0  0  0  0
 44160  1  0  0  0  0
 45 46  1  0  0  0  0
 45161  1  0  0  0  0
 45162  1  0  0  0  0
 46 47  1  0  0  0  0
 46163  1  0  0  0  0
 46164  1  0  0  0  0
 47 48  1  0  0  0  0
 47165  1  0  0  0  0
 47166  1  0  0  0  0
 48 49  1  0  0  0  0
 48167  1  0  0  0  0
 48168  1  0  0  0  0
 49 50  1  0  0  0  0
 49169  1  0  0  0  0
 49170  1  0  0  0  0
 50 51  1  0  0  0  0
 50171  1  0  0  0  0
 50172  1  0  0  0  0
 51 52  1  0  0  0  0
 51173  1  0  0  0  0
 51174  1  0  0  0  0
 52 53  1  0  0  0  0
 52175  1  0  0  0  0
 52176  1  0  0  0  0
 53 54  1  0  0  0  0
 53177  1  0  0  0  0
 53178  1  0  0  0  0
 54 55  1  0  0  0  0
 54179  1  0  0  0  0
 54180  1  0  0  0  0
 55 56  1  0  0  0  0
 55181  1  0  0  0  0
 55182  1  0  0  0  0
 56 57  1  0  0  0  0
 56183  1  0  0  0  0
 56184  1  0  0  0  0
 57 58  1  0  0  0  0
 57185  1  0  0  0  0
 57186  1  0  0  0  0
 58 59  1  0  0  0  0
 58187  1  0  0  0  0
 58188  1  0  0  0  0
 59 60  1  0  0  0  0
 59189  1  0  0  0  0
 59190  1  0  0  0  0
 60 61  1  0  0  0  0
 60191  1  0  0  0  0
 60192  1  0  0  0  0
 61 62  1  0  0  0  0
 61193  1  0  0  0  0
 61194  1  0  0  0  0
 62 63  1  0  0  0  0
 62195  1  0  0  0  0
 62196  1  0  0  0  0
 63 64  1  0  0  0  0
 63197  1  0  0  0  0
 63198  1  0  0  0  0
 64 65  1  0  0  0  0
 64199  1  0  0  0  0
 64200  1  0  0  0  0
 65 66  1  0  0  0  0
 65201  1  0  0  0  0
 65202  1  0  0  0  0
 66 67  1  0  0  0  0
 66203  1  0  0  0  0
 66204  1  0  0  0  0
 67 68  1  0  0  0  0
 67205  1  0  0  0  0
 67206  1  0  0  0  0
 68 69  1  0  0  0  0
 68207  1  0  0  0  0
 68208  1  0  0  0  0
 69 70  1  0  0  0  0
 69209  1  0  0  0  0
 69210  1  0  0  0  0
 70 71  1  0  0  0  0
 70211  1  0  0  0  0
 70212  1  0  0  0  0
 71 72  1  0  0  0  0
 71213  1  0  0  0  0
 71214  1  0  0  0  0
 72 73  1  0  0  0  0
 72215  1  0  0  0  0
 72216  1  0  0  0  0
 73 74  1  0  0  0  0
 73217  1  0  0  0  0
 73218  1  0  0  0  0
 74 75  1  0  0  0  0
 74219  1  0  0  0  0
 74220  1  0  0  0  0
 75 76  1  0  0  0  0
 75221  1  0  0  0  0
 75222  1  0  0  0  0
 76 77  1  0  0  0  0
 76223  1  0  0  0  0
 76224  1  0  0  0  0
 77 78  1  0  0  0  0
 77225  1  0  0  0  0
 77226  1  0  0  0  0
 78 79  1  0  0  0  0
 78227  1  0  0  0  0
 78228  1  0  0  0  0
 79 80  1  0  0  0  0
 79229  1  0  0  0  0
 79230  1  0  0  0  0
 80 81  1  0  0  0  0
 80231  1  0  0  0  0
 80232  1  0  0  0  0
 81233  1  0  0  0  0
 81234  1  0  0  0  0
 81235  1  0  0  0  0
M  END
$$$$
