
 OpenBabel04232216443D

 52 55  0  0  0  0  0  0  0  0999 V2000
    1.3721    2.9512    1.1864 C   0  0  0  0  0  0  0  0  0  0  0  0
    2.4535    3.9180    0.8101 C   0  0  0  0  0  0  0  0  0  0  0  0
    3.5243    3.4998    0.0981 C   0  0  0  0  0  0  0  0  0  0  0  0
    4.6047    4.3989    0.4365 C   0  0  0  0  0  0  0  0  0  0  0  0
    4.2010    5.6445    0.8194 C   0  0  0  0  0  0  0  0  0  0  0  0
    5.3153    6.7030    0.3809 C   0  0  0  0  0  0  0  0  0  0  0  0
    6.3838    7.7811    0.9247 C   0  0  0  0  0  0  0  0  0  0  0  0
    6.7091    9.1618    0.2101 C   0  0  0  0  0  0  0  0  0  0  0  0
    5.6293   10.2303    0.0662 C   0  0  0  0  0  0  0  0  0  0  0  0
    4.3269    9.5270   -0.1193 C   0  0  0  0  0  0  0  0  0  0  0  0
    3.0723   10.3607   -0.1600 C   0  0  0  0  0  0  0  0  0  0  0  0
    1.9789    9.3143   -0.0289 C   0  0  0  0  0  0  0  0  0  0  0  0
    0.6044    9.8622    0.2136 C   0  0  0  0  0  0  0  0  0  0  0  0
   -0.0681    8.8832    1.0489 C   0  0  0  0  0  0  0  0  0  0  0  0
   -0.3412    8.4810    2.1974 N   0  0  0  0  0  0  0  0  0  0  0  0
   -0.5148    7.5730    1.1180 C   0  0  0  0  0  0  0  0  0  0  0  0
    2.6749    5.4064    1.0385 C   0  0  0  0  0  0  0  0  0  0  0  0
    1.6837    6.2585    1.4567 C   0  0  0  0  0  0  0  0  0  0  0  0
    3.3814    3.0371   -1.3260 C   0  0  0  0  0  0  0  0  0  0  0  0
    2.1760    2.9017   -1.9229 C   0  0  0  0  0  0  0  0  0  0  0  0
    1.4568    4.1506   -2.2421 C   0  0  0  0  0  0  0  0  0  0  0  0
    0.1367    4.3023   -1.9791 C   0  0  0  0  0  0  0  0  0  0  0  0
   -0.1799    5.5815   -1.3471 C   0  0  0  0  0  0  0  0  0  0  0  0
   -0.4025    5.5615   -0.0199 C   0  0  0  0  0  0  0  0  0  0  0  0
    0.2661    6.5075    0.8649 C   0  0  0  0  0  0  0  0  0  0  0  0
    0.3715    3.2353    0.8916 H   0  0  0  0  0  0  0  0  0  0  0  0
    1.3786    2.7440    2.2607 H   0  0  0  0  0  0  0  0  0  0  0  0
    1.5437    1.9700    0.7139 H   0  0  0  0  0  0  0  0  0  0  0  0
    5.6041    4.1077    0.1400 H   0  0  0  0  0  0  0  0  0  0  0  0
    5.2033    6.8408   -0.7016 H   0  0  0  0  0  0  0  0  0  0  0  0
    6.1202    5.9551    0.4399 H   0  0  0  0  0  0  0  0  0  0  0  0
    7.3644    7.2930    0.7219 H   0  0  0  0  0  0  0  0  0  0  0  0
    6.3532    7.8951    2.0041 H   0  0  0  0  0  0  0  0  0  0  0  0
    7.5369    9.6315    0.7627 H   0  0  0  0  0  0  0  0  0  0  0  0
    7.1220    8.9702   -0.7906 H   0  0  0  0  0  0  0  0  0  0  0  0
    5.8409   10.8907   -0.7848 H   0  0  0  0  0  0  0  0  0  0  0  0
    5.5977   10.8724    0.9573 H   0  0  0  0  0  0  0  0  0  0  0  0
    4.2276    8.8829    0.7595 H   0  0  0  0  0  0  0  0  0  0  0  0
    4.3735    8.8982   -1.0163 H   0  0  0  0  0  0  0  0  0  0  0  0
    2.9868   10.9309   -1.0894 H   0  0  0  0  0  0  0  0  0  0  0  0
    3.0473   11.0539    0.6874 H   0  0  0  0  0  0  0  0  0  0  0  0
    2.2547    8.6821    0.8249 H   0  0  0  0  0  0  0  0  0  0  0  0
    1.9849    8.6454   -0.9024 H   0  0  0  0  0  0  0  0  0  0  0  0
    0.0731    9.9733   -0.7344 H   0  0  0  0  0  0  0  0  0  0  0  0
    0.6296   10.8266    0.7258 H   0  0  0  0  0  0  0  0  0  0  0  0
    1.2538    5.8101    2.3806 H   0  0  0  0  0  0  0  0  0  0  0  0
    4.0756    3.6855   -1.8937 H   0  0  0  0  0  0  0  0  0  0  0  0
    1.4982    2.1404   -1.5246 H   0  0  0  0  0  0  0  0  0  0  0  0
    2.0825    5.0401   -2.2684 H   0  0  0  0  0  0  0  0  0  0  0  0
   -0.5118    3.4609   -1.7735 H   0  0  0  0  0  0  0  0  0  0  0  0
    0.2776    6.4584   -1.8021 H   0  0  0  0  0  0  0  0  0  0  0  0
   -0.8531    4.6904    0.4586 H   0  0  0  0  0  0  0  0  0  0  0  0
  1  2  1  0  0  0  0
  1 26  1  0  0  0  0
  1 27  1  0  0  0  0
  1 28  1  0  0  0  0
  2  3  2  0  0  0  0
  2 17  1  0  0  0  0
  3  4  1  0  0  0  0
  3 19  1  0  0  0  0
  4  5  2  0  0  0  0
  4 29  1  0  0  0  0
  5  6  1  0  0  0  0
  5 17  1  0  0  0  0
  6  7  1  0  0  0  0
  6 30  1  0  0  0  0
  6 31  1  0  0  0  0
  7  8  1  0  0  0  0
  7 32  1  0  0  0  0
  7 33  1  0  0  0  0
  8  9  1  0  0  0  0
  8 34  1  0  0  0  0
  8 35  1  0  0  0  0
  9 10  1  0  0  0  0
  9 36  1  0  0  0  0
  9 37  1  0  0  0  0
 10 11  1  0  0  0  0
 10 38  1  0  0  0  0
 10 39  1  0  0  0  0
 11 12  1  0  0  0  0
 11 40  1  0  0  0  0
 11 41  1  0  0  0  0
 12 13  1  0  0  0  0
 12 42  1  0  0  0  0
 12 43  1  0  0  0  0
 13 14  1  0  0  0  0
 13 44  1  0  0  0  0
 13 45  1  0  0  0  0
 14 15  2  0  0  0  0
 14 16  1  0  0  0  0
 15 16  1  0  0  0  0
 16 25  2  3  0  0  0
 17 18  2  3  0  0  0
 18 25  1  0  0  0  0
 18 46  1  0  0  0  0
 19 20  2  3  0  0  0
 19 47  1  0  0  0  0
 20 21  1  0  0  0  0
 20 48  1  0  0  0  0
 21 22  2  3  0  0  0
 21 49  1  0  0  0  0
 22 23  1  0  0  0  0
 22 50  1  0  0  0  0
 23 24  2  3  0  0  0
 23 51  1  0  0  0  0
 24 25  1  0  0  0  0
 24 52  1  0  0  0  0
M  END
$$$$
