
 OpenBabel04232216413D

176175  0  0  0  0  0  0  0  0999 V2000
   10.0103   12.1695   38.3209 C   0  0  0  0  0  0  0  0  0  0  0  0
   10.8922   13.0837   37.8893 C   0  0  0  0  0  0  0  0  0  0  0  0
   11.2750   13.2172   36.4403 C   0  0  0  0  0  0  0  0  0  0  0  0
   12.7131   13.0172   36.2559 N   0  0  0  0  0  0  0  0  0  0  0  0
   13.0325   13.1508   34.8659 N   0  0  0  0  0  0  0  0  0  0  0  0
   14.4190   12.9514   34.6867 N   0  0  0  0  0  0  0  0  0  0  0  0
   14.7566   13.0814   33.3173 N   0  0  0  0  0  0  0  0  0  0  0  0
   16.1416   12.8810   33.1362 N   0  0  0  0  0  0  0  0  0  0  0  0
   16.4719   13.0114   31.7683 N   0  0  0  0  0  0  0  0  0  0  0  0
   17.8592   12.8127   31.5840 N   0  0  0  0  0  0  0  0  0  0  0  0
   18.1894   12.9420   30.2160 N   0  0  0  0  0  0  0  0  0  0  0  0
   19.5765   12.7408   30.0325 N   0  0  0  0  0  0  0  0  0  0  0  0
   19.9042   12.8731   28.6661 N   0  0  0  0  0  0  0  0  0  0  0  0
   21.2951   12.6736   28.4785 N   0  0  0  0  0  0  0  0  0  0  0  0
   21.6247   12.8028   27.1107 N   0  0  0  0  0  0  0  0  0  0  0  0
   23.0152   12.6050   26.9285 N   0  0  0  0  0  0  0  0  0  0  0  0
   23.3455   12.7433   25.5598 N   0  0  0  0  0  0  0  0  0  0  0  0
   24.7462   12.5368   25.3702 N   0  0  0  0  0  0  0  0  0  0  0  0
   25.0646   12.6754   23.9840 N   0  0  0  0  0  0  0  0  0  0  0  0
   26.5005   12.4693   23.8146 C   0  0  0  0  0  0  0  0  0  0  0  0
   26.8563   12.6100   22.3490 C   0  0  0  0  0  0  0  0  0  0  0  0
   28.3436   12.3942   22.1472 C   0  0  0  0  0  0  0  0  0  0  0  0
   28.7020   12.5367   20.6833 C   0  0  0  0  0  0  0  0  0  0  0  0
   30.1869   12.3232   20.4836 C   0  0  0  0  0  0  0  0  0  0  0  0
   30.5439   12.4659   19.0201 C   0  0  0  0  0  0  0  0  0  0  0  0
   32.0282   12.2505   18.8204 C   0  0  0  0  0  0  0  0  0  0  0  0
   32.3851   12.3932   17.3569 C   0  0  0  0  0  0  0  0  0  0  0  0
   33.8695   12.1778   17.1571 C   0  0  0  0  0  0  0  0  0  0  0  0
   34.2266   12.3205   15.6934 C   0  0  0  0  0  0  0  0  0  0  0  0
   35.7114   12.1053   15.4923 C   0  0  0  0  0  0  0  0  0  0  0  0
   36.0706   12.2478   14.0267 C   0  0  0  0  0  0  0  0  0  0  0  0
   37.5544   12.0288   13.8349 C   0  0  0  0  0  0  0  0  0  0  0  0
   37.8672   12.1546   12.4241 N   0  0  0  0  0  0  0  0  0  0  0  0
   39.2601   11.9409   12.2467 N   0  0  0  0  0  0  0  0  0  0  0  0
   39.6142   12.0958   10.8577 N   0  0  0  0  0  0  0  0  0  0  0  0
   39.2707   13.3943   10.3931 N   0  0  0  0  0  0  0  0  0  0  0  0
   39.9818   14.3716   11.1475 N   0  0  0  0  0  0  0  0  0  0  0  0
   41.3955   14.1622   10.9904 N   0  0  0  0  0  0  0  0  0  0  0  0
   41.7555   14.2733    9.6158 N   0  0  0  0  0  0  0  0  0  0  0  0
   41.4005   15.5635    9.1472 N   0  0  0  0  0  0  0  0  0  0  0  0
   42.0930   16.5562    9.9179 N   0  0  0  0  0  0  0  0  0  0  0  0
   43.5038   16.3684    9.7810 N   0  0  0  0  0  0  0  0  0  0  0  0
   43.8920   16.4610    8.4058 N   0  0  0  0  0  0  0  0  0  0  0  0
   43.5194   17.7474    7.9167 N   0  0  0  0  0  0  0  0  0  0  0  0
   44.2135   18.7766    8.6672 N   0  0  0  0  0  0  0  0  0  0  0  0
   45.6271   18.5855    8.5848 N   0  0  0  0  0  0  0  0  0  0  0  0
   46.0127   18.6691    7.2144 N   0  0  0  0  0  0  0  0  0  0  0  0
   45.6643   19.9737    6.6944 N   0  0  0  0  0  0  0  0  0  0  0  0
   46.2961   21.0007    7.4600 N   0  0  0  0  0  0  0  0  0  0  0  0
   47.7141   20.8287    7.3770 N   0  0  0  0  0  0  0  0  0  0  0  0
   48.1269   20.9188    6.0045 N   0  0  0  0  0  0  0  0  0  0  0  0
   47.7542   22.1783    5.4539 N   0  0  0  0  0  0  0  0  0  0  0  0
   48.3679   23.2159    6.2104 N   0  0  0  0  0  0  0  0  0  0  0  0
   49.7964   23.0565    6.1459 N   0  0  0  0  0  0  0  0  0  0  0  0
   50.2314   23.1084    4.7850 N   0  0  0  0  0  0  0  0  0  0  0  0
   49.8600   24.3561    4.2196 N   0  0  0  0  0  0  0  0  0  0  0  0
   50.4667   25.4099    4.9678 N   0  0  0  0  0  0  0  0  0  0  0  0
   51.8761   25.2456    4.9480 N   0  0  0  0  0  0  0  0  0  0  0  0
   52.3471   25.3139    3.5868 N   0  0  0  0  0  0  0  0  0  0  0  0
   51.9903   26.5648    2.9733 N   0  0  0  0  0  0  0  0  0  0  0  0
   52.5804   27.6320    3.7022 N   0  0  0  0  0  0  0  0  0  0  0  0
   54.0014   27.4868    3.6987 N   0  0  0  0  0  0  0  0  0  0  0  0
   54.4595   27.4776    2.3588 N   0  0  0  0  0  0  0  0  0  0  0  0
   54.1004   28.7220    1.7477 N   0  0  0  0  0  0  0  0  0  0  0  0
   54.6899   29.8318    2.4629 N   0  0  0  0  0  0  0  0  0  0  0  0
   56.1046   29.7020    2.4689 N   0  0  0  0  0  0  0  0  0  0  0  0
   56.5915   29.7024    1.1424 N   0  0  0  0  0  0  0  0  0  0  0  0
   56.2083   30.8991    0.5038 N   0  0  0  0  0  0  0  0  0  0  0  0
   56.7801   32.0198    1.2190 N   0  0  0  0  0  0  0  0  0  0  0  0
   58.2083   31.8928    1.2731 N   0  0  0  0  0  0  0  0  0  0  0  0
   58.7178   31.8863   -0.0720 N   0  0  0  0  0  0  0  0  0  0  0  0
   58.3586   33.1196   -0.7448 N   0  0  0  0  0  0  0  0  0  0  0  0
   58.8864   34.2466   -0.0318 N   0  0  0  0  0  0  0  0  0  0  0  0
   60.2974   34.1425    0.0240 N   0  0  0  0  0  0  0  0  0  0  0  0
   60.8224   34.1185   -1.2843 N   0  0  0  0  0  0  0  0  0  0  0  0
   60.4538   35.2983   -1.9725 N   0  0  0  0  0  0  0  0  0  0  0  0
   60.9580   36.4370   -1.2879 N   0  0  0  0  0  0  0  0  0  0  0  0
   62.3830   36.3734   -1.2142 N   0  0  0  0  0  0  0  0  0  0  0  0
   62.9505   36.3217   -2.5189 N   0  0  0  0  0  0  0  0  0  0  0  0
   62.5736   37.4879   -3.2368 N   0  0  0  0  0  0  0  0  0  0  0  0
    9.7508   12.0797   39.3675 H   0  0  0  0  0  0  0  0  0  0  0  0
    9.5550   11.4892   37.6114 H   0  0  0  0  0  0  0  0  0  0  0  0
   11.3397   13.7559   38.6177 H   0  0  0  0  0  0  0  0  0  0  0  0
   10.9871   14.2201   36.0996 H   0  0  0  0  0  0  0  0  0  0  0  0
   10.7063   12.4881   35.8497 H   0  0  0  0  0  0  0  0  0  0  0  0
   12.9625   12.0734   36.5481 H   0  0  0  0  0  0  0  0  0  0  0  0
   12.7588   14.0883   34.5633 H   0  0  0  0  0  0  0  0  0  0  0  0
   14.6826   12.0159   35.0029 H   0  0  0  0  0  0  0  0  0  0  0  0
   14.4848   14.0132   33.0051 H   0  0  0  0  0  0  0  0  0  0  0  0
   16.3999   11.9447   33.4518 H   0  0  0  0  0  0  0  0  0  0  0  0
   16.2011   13.9423   31.4531 H   0  0  0  0  0  0  0  0  0  0  0  0
   18.1190   11.8777   31.9028 H   0  0  0  0  0  0  0  0  0  0  0  0
   17.9179   13.8730   29.9014 H   0  0  0  0  0  0  0  0  0  0  0  0
   19.8324   11.8047   30.3534 H   0  0  0  0  0  0  0  0  0  0  0  0
   19.6294   13.8051   28.3534 H   0  0  0  0  0  0  0  0  0  0  0  0
   21.5547   11.7374   28.7957 H   0  0  0  0  0  0  0  0  0  0  0  0
   21.3595   13.7356   26.7963 H   0  0  0  0  0  0  0  0  0  0  0  0
   23.2591   11.6669   27.2648 H   0  0  0  0  0  0  0  0  0  0  0  0
   23.0893   13.6777   25.2281 H   0  0  0  0  0  0  0  0  0  0  0  0
   24.9933   11.5950   25.6958 H   0  0  0  0  0  0  0  0  0  0  0  0
   24.8197   13.6169   23.6734 H   0  0  0  0  0  0  0  0  0  0  0  0
   26.7776   11.4663   24.1567 H   0  0  0  0  0  0  0  0  0  0  0  0
   27.0639   13.2047   24.3980 H   0  0  0  0  0  0  0  0  0  0  0  0
   26.5845   13.6096   21.9954 H   0  0  0  0  0  0  0  0  0  0  0  0
   26.3003   11.8743   21.7587 H   0  0  0  0  0  0  0  0  0  0  0  0
   28.6215   11.3943   22.4960 H   0  0  0  0  0  0  0  0  0  0  0  0
   28.9050   13.1282   22.7341 H   0  0  0  0  0  0  0  0  0  0  0  0
   28.4248   13.5359   20.3331 H   0  0  0  0  0  0  0  0  0  0  0  0
   28.1435   11.8014   20.0954 H   0  0  0  0  0  0  0  0  0  0  0  0
   30.4646   11.3239   20.8334 H   0  0  0  0  0  0  0  0  0  0  0  0
   30.7459   13.0584   21.0711 H   0  0  0  0  0  0  0  0  0  0  0  0
   30.2677   13.4657   18.6706 H   0  0  0  0  0  0  0  0  0  0  0  0
   29.9840   11.7317   18.4323 H   0  0  0  0  0  0  0  0  0  0  0  0
   32.3044   11.2507   19.1699 H   0  0  0  0  0  0  0  0  0  0  0  0
   32.5881   12.9848   19.4081 H   0  0  0  0  0  0  0  0  0  0  0  0
   32.1088   13.3930   17.0074 H   0  0  0  0  0  0  0  0  0  0  0  0
   31.8251   11.6590   16.7692 H   0  0  0  0  0  0  0  0  0  0  0  0
   34.1456   11.1780   17.5067 H   0  0  0  0  0  0  0  0  0  0  0  0
   34.4293   12.9121   17.7450 H   0  0  0  0  0  0  0  0  0  0  0  0
   33.9500   13.3203   15.3443 H   0  0  0  0  0  0  0  0  0  0  0  0
   33.6663   11.5863   15.1060 H   0  0  0  0  0  0  0  0  0  0  0  0
   35.9869   11.1055   15.8433 H   0  0  0  0  0  0  0  0  0  0  0  0
   36.2705   12.8394   16.0814 H   0  0  0  0  0  0  0  0  0  0  0  0
   35.7913   13.2486   13.6808 H   0  0  0  0  0  0  0  0  0  0  0  0
   35.5069   11.5136   13.4418 H   0  0  0  0  0  0  0  0  0  0  0  0
   37.8246   11.0288   14.1781 H   0  0  0  0  0  0  0  0  0  0  0  0
   38.1129   12.7677   14.4179 H   0  0  0  0  0  0  0  0  0  0  0  0
   37.6072   13.0986   12.1299 H   0  0  0  0  0  0  0  0  0  0  0  0
   39.5562   11.0155   12.5433 H   0  0  0  0  0  0  0  0  0  0  0  0
   39.1147   11.3736   10.3167 H   0  0  0  0  0  0  0  0  0  0  0  0
   38.2664   13.5541   10.4756 H   0  0  0  0  0  0  0  0  0  0  0  0
   39.7783   14.2905   12.1391 H   0  0  0  0  0  0  0  0  0  0  0  0
   41.6365   13.2226   11.3406 H   0  0  0  0  0  0  0  0  0  0  0  0
   41.2546   13.5843    9.0603 H   0  0  0  0  0  0  0  0  0  0  0  0
   40.3936   15.7128    9.2543 H   0  0  0  0  0  0  0  0  0  0  0  0
   41.8213   16.4628   10.9063 H   0  0  0  0  0  0  0  0  0  0  0  0
   43.7696   15.4456   10.1150 H   0  0  0  0  0  0  0  0  0  0  0  0
   43.3950   15.7343    7.8746 H   0  0  0  0  0  0  0  0  0  0  0  0
   42.5048   17.8721    7.9994 H   0  0  0  0  0  0  0  0  0  0  0  0
   43.9533   18.7009    9.6529 H   0  0  0  0  0  0  0  0  0  0  0  0
   45.8677   17.6605    8.9651 H   0  0  0  0  0  0  0  0  0  0  0  0
   45.5350   17.9357    6.6782 H   0  0  0  0  0  0  0  0  0  0  0  0
   44.6534   20.1101    6.7722 H   0  0  0  0  0  0  0  0  0  0  0  0
   46.0030   20.9263    8.4404 H   0  0  0  0  0  0  0  0  0  0  0  0
   47.9492   19.9098    7.7680 H   0  0  0  0  0  0  0  0  0  0  0  0
   47.6650   20.1887    5.4592 H   0  0  0  0  0  0  0  0  0  0  0  0
   46.7473   22.3008    5.5111 H   0  0  0  0  0  0  0  0  0  0  0  0
   48.0466   23.1501    7.1817 H   0  0  0  0  0  0  0  0  0  0  0  0
   50.0333   22.1367    6.5528 H   0  0  0  0  0  0  0  0  0  0  0  0
   49.7821   22.3754    4.2436 H   0  0  0  0  0  0  0  0  0  0  0  0
   48.8565   24.4787    4.2630 H   0  0  0  0  0  0  0  0  0  0  0  0
   50.1333   25.3660    5.9367 H   0  0  0  0  0  0  0  0  0  0  0  0
   52.1396   24.3459    5.3604 H   0  0  0  0  0  0  0  0  0  0  0  0
   51.9073   24.5765    3.0392 H   0  0  0  0  0  0  0  0  0  0  0  0
   50.9784   26.6701    3.0057 H   0  0  0  0  0  0  0  0  0  0  0  0
   52.2486   27.5977    4.6629 H   0  0  0  0  0  0  0  0  0  0  0  0
   54.2257   26.5873    4.1449 H   0  0  0  0  0  0  0  0  0  0  0  0
   54.0247   26.7040    1.8473 H   0  0  0  0  0  0  0  0  0  0  0  0
   53.0827   28.8322    1.7569 H   0  0  0  0  0  0  0  0  0  0  0  0
   54.3567   29.8123    3.4272 H   0  0  0  0  0  0  0  0  0  0  0  0
   56.3635   28.8257    2.9098 H   0  0  0  0  0  0  0  0  0  0  0  0
   56.1939   28.9313    0.6172 H   0  0  0  0  0  0  0  0  0  0  0  0
   55.1925   30.9891    0.4976 H   0  0  0  0  0  0  0  0  0  0  0  0
   56.3998   31.9845    2.1794 H   0  0  0  0  0  0  0  0  0  0  0  0
   58.4433   31.0063    1.7417 H   0  0  0  0  0  0  0  0  0  0  0  0
   58.3195   31.0832   -0.5747 H   0  0  0  0  0  0  0  0  0  0  0  0
   57.3441   33.2011   -0.7676 H   0  0  0  0  0  0  0  0  0  0  0  0
   58.5357   34.2529    0.9220 H   0  0  0  0  0  0  0  0  0  0  0  0
   60.5741   33.2873    0.4936 H   0  0  0  0  0  0  0  0  0  0  0  0
   60.4532   33.3304   -1.8022 H   0  0  0  0  0  0  0  0  0  0  0  0
   59.4404   35.3730   -1.9943 H   0  0  0  0  0  0  0  0  0  0  0  0
   60.5813   36.4241   -0.3399 H   0  0  0  0  0  0  0  0  0  0  0  0
   62.6120   35.5022   -0.7302 H   0  0  0  0  0  0  0  0  0  0  0  0
   62.5437   35.5024   -2.9817 H   0  0  0  0  0  0  0  0  0  0  0  0
   62.8936   38.2896   -2.6990 H   0  0  0  0  0  0  0  0  0  0  0  0
   61.5485   37.5295   -3.2363 H   0  0  0  0  0  0  0  0  0  0  0  0
  1  2  2  0  0  0  0
  1 81  1  0  0  0  0
  1 82  1  0  0  0  0
  2  3  1  0  0  0  0
  2 83  1  0  0  0  0
  3  4  1  0  0  0  0
  3 84  1  0  0  0  0
  3 85  1  0  0  0  0
  4  5  1  0  0  0  0
  4 86  1  0  0  0  0
  5  6  1  0  0  0  0
  5 87  1  0  0  0  0
  6  7  1  0  0  0  0
  6 88  1  0  0  0  0
  7  8  1  0  0  0  0
  7 89  1  0  0  0  0
  8  9  1  0  0  0  0
  8 90  1  0  0  0  0
  9 10  1  0  0  0  0
  9 91  1  0  0  0  0
 10 11  1  0  0  0  0
 10 92  1  0  0  0  0
 11 12  1  0  0  0  0
 11 93  1  0  0  0  0
 12 13  1  0  0  0  0
 12 94  1  0  0  0  0
 13 14  1  0  0  0  0
 13 95  1  0  0  0  0
 14 15  1  0  0  0  0
 14 96  1  0  0  0  0
 15 16  1  0  0  0  0
 15 97  1  0  0  0  0
 16 17  1  0  0  0  0
 16 98  1  0  0  0  0
 17 18  1  0  0  0  0
 17 99  1  0  0  0  0
 18 19  1  0  0  0  0
 18100  1  0  0  0  0
 19 20  1  0  0  0  0
 19101  1  0  0  0  0
 20 21  1  0  0  0  0
 20102  1  0  0  0  0
 20103  1  0  0  0  0
 21 22  1  0  0  0  0
 21104  1  0  0  0  0
 21105  1  0  0  0  0
 22 23  1  0  0  0  0
 22106  1  0  0  0  0
 22107  1  0  0  0  0
 23 24  1  0  0  0  0
 23108  1  0  0  0  0
 23109  1  0  0  0  0
 24 25  1  0  0  0  0
 24110  1  0  0  0  0
 24111  1  0  0  0  0
 25 26  1  0  0  0  0
 25112  1  0  0  0  0
 25113  1  0  0  0  0
 26 27  1  0  0  0  0
 26114  1  0  0  0  0
 26115  1  0  0  0  0
 27 28  1  0  0  0  0
 27116  1  0  0  0  0
 27117  1  0  0  0  0
 28 29  1  0  0  0  0
 28118  1  0  0  0  0
 28119  1  0  0  0  0
 29 30  1  0  0  0  0
 29120  1  0  0  0  0
 29121  1  0  0  0  0
 30 31  1  0  0  0  0
 30122  1  0  0  0  0
 30123  1  0  0  0  0
 31 32  1  0  0  0  0
 31124  1  0  0  0  0
 31125  1  0  0  0  0
 32 33  1  0  0  0  0
 32126  1  0  0  0  0
 32127  1  0  0  0  0
 33 34  1  0  0  0  0
 33128  1  0  0  0  0
 34 35  1  0  0  0  0
 34129  1  0  0  0  0
 35 36  1  0  0  0  0
 35130  1  0  0  0  0
 36 37  1  0  0  0  0
 36131  1  0  0  0  0
 37 38  1  0  0  0  0
 37132  1  0  0  0  0
 38 39  1  0  0  0  0
 38133  1  0  0  0  0
 39 40  1  0  0  0  0
 39134  1  0  0  0  0
 40 41  1  0  0  0  0
 40135  1  0  0  0  0
 41 42  1  0  0  0  0
 41136  1  0  0  0  0
 42 43  1  0  0  0  0
 42137  1  0  0  0  0
 43 44  1  0  0  0  0
 43138  1  0  0  0  0
 44 45  1  0  0  0  0
 44139  1  0  0  0  0
 45 46  1  0  0  0  0
 45140  1  0  0  0  0
 46 47  1  0  0  0  0
 46141  1  0  0  0  0
 47 48  1  0  0  0  0
 47142  1  0  0  0  0
 48 49  1  0  0  0  0
 48143  1  0  0  0  0
 49 50  1  0  0  0  0
 49144  1  0  0  0  0
 50 51  1  0  0  0  0
 50145  1  0  0  0  0
 51 52  1  0  0  0  0
 51146  1  0  0  0  0
 52 53  1  0  0  0  0
 52147  1  0  0  0  0
 53 54  1  0  0  0  0
 53148  1  0  0  0  0
 54 55  1  0  0  0  0
 54149  1  0  0  0  0
 55 56  1  0  0  0  0
 55150  1  0  0  0  0
 56 57  1  0  0  0  0
 56151  1  0  0  0  0
 57 58  1  0  0  0  0
 57152  1  0  0  0  0
 58 59  1  0  0  0  0
 58153  1  0  0  0  0
 59 60  1  0  0  0  0
 59154  1  0  0  0  0
 60 61  1  0  0  0  0
 60155  1  0  0  0  0
 61 62  1  0  0  0  0
 61156  1  0  0  0  0
 62 63  1  0  0  0  0
 62157  1  0  0  0  0
 63 64  1  0  0  0  0
 63158  1  0  0  0  0
 64 65  1  0  0  0  0
 64159  1  0  0  0  0
 65 66  1  0  0  0  0
 65160  1  0  0  0  0
 66 67  1  0  0  0  0
 66161  1  0  0  0  0
 67 68  1  0  0  0  0
 67162  1  0  0  0  0
 68 69  1  0  0  0  0
 68163  1  0  0  0  0
 69 70  1  0  0  0  0
 69164  1  0  0  0  0
 70 71  1  0  0  0  0
 70165  1  0  0  0  0
 71 72  1  0  0  0  0
 71166  1  0  0  0  0
 72 73  1  0  0  0  0
 72167  1  0  0  0  0
 73 74  1  0  0  0  0
 73168  1  0  0  0  0
 74 75  1  0  0  0  0
 74169  1  0  0  0  0
 75 76  1  0  0  0  0
 75170  1  0  0  0  0
 76 77  1  0  0  0  0
 76171  1  0  0  0  0
 77 78  1  0  0  0  0
 77172  1  0  0  0  0
 78 79  1  0  0  0  0
 78173  1  0  0  0  0
 79 80  1  0  0  0  0
 79174  1  0  0  0  0
 80175  1  0  0  0  0
 80176  1  0  0  0  0
M  END
$$$$
