
 OpenBabel04232217003D

221220  0  0  0  0  0  0  0  0999 V2000
   23.5689  -12.9554   14.5793 O   0  0  0  0  0  0  0  0  0  0  0  0
   24.3854  -12.9924   15.5061 C   0  0  0  0  0  0  0  0  0  0  0  0
   25.2522  -11.8435   15.9239 C   0  0  0  0  0  0  0  0  0  0  0  0
   24.9895  -10.6356   15.0533 C   0  0  0  0  0  0  0  0  0  0  0  0
   25.8297   -9.5559   15.4739 O   0  0  0  0  0  0  0  0  0  0  0  0
   25.5857   -8.4151   14.6555 C   0  0  0  0  0  0  0  0  0  0  0  0
   26.4819   -7.2803   15.1094 C   0  0  0  0  0  0  0  0  0  0  0  0
   26.2362   -6.0547   14.2458 C   0  0  0  0  0  0  0  0  0  0  0  0
   27.1262   -4.9066   14.6863 C   0  0  0  0  0  0  0  0  0  0  0  0
   26.8706   -3.6872   13.8176 C   0  0  0  0  0  0  0  0  0  0  0  0
   27.7626   -2.5406   14.2582 C   0  0  0  0  0  0  0  0  0  0  0  0
   27.5066   -1.3207   13.3918 C   0  0  0  0  0  0  0  0  0  0  0  0
   28.4004   -0.1748   13.8315 C   0  0  0  0  0  0  0  0  0  0  0  0
   28.1459    1.0454   12.9635 C   0  0  0  0  0  0  0  0  0  0  0  0
   29.0389    2.1941   13.4007 C   0  0  0  0  0  0  0  0  0  0  0  0
   28.7874    3.4180   12.5315 C   0  0  0  0  0  0  0  0  0  0  0  0
   29.6842    4.5641   12.9747 C   0  0  0  0  0  0  0  0  0  0  0  0
   29.4293    5.7229   12.1350 N   0  0  0  0  0  0  0  0  0  0  0  0
   30.2845    6.8118   12.5696 C   0  0  0  0  0  0  0  0  0  0  0  0
   30.0283    8.0425   11.6937 C   0  0  0  0  0  0  0  0  0  0  0  0
   30.8655    9.1159   12.1812 N   0  0  0  0  0  0  0  0  0  0  0  0
   30.6103   10.2737   11.4002 N   0  0  0  0  0  0  0  0  0  0  0  0
   31.4598   11.3315   11.8026 N   0  0  0  0  0  0  0  0  0  0  0  0
   32.8463   11.0045   11.6222 N   0  0  0  0  0  0  0  0  0  0  0  0
   33.0760   10.6090   10.2773 N   0  0  0  0  0  0  0  0  0  0  0  0
   32.7911   11.7670    9.4530 N   0  0  0  0  0  0  0  0  0  0  0  0
   33.5966   12.8999    9.9221 N   0  0  0  0  0  0  0  0  0  0  0  0
   35.0058   12.6170    9.7574 N   0  0  0  0  0  0  0  0  0  0  0  0
   35.3363   12.3041    8.4089 N   0  0  0  0  0  0  0  0  0  0  0  0
   35.0869   13.4256    7.5594 N   0  0  0  0  0  0  0  0  0  0  0  0
   35.8378   14.5698    8.0045 N   0  0  0  0  0  0  0  0  0  0  0  0
   37.2480   14.3086    7.8954 N   0  0  0  0  0  0  0  0  0  0  0  0
   37.5909   13.9671    6.5280 N   0  0  0  0  0  0  0  0  0  0  0  0
   37.2631   15.1172    5.6767 C   0  0  0  0  0  0  0  0  0  0  0  0
   37.9972   16.3212    6.0843 N   0  0  0  0  0  0  0  0  0  0  0  0
   39.4326   16.0616    6.0261 C   0  0  0  0  0  0  0  0  0  0  0  0
   40.1700   17.2792    6.5230 C   0  0  0  0  0  0  0  0  0  0  0  0
   41.6611   17.0127    6.4352 C   0  0  0  0  0  0  0  0  0  0  0  0
   42.4257   18.2336    6.9004 C   0  0  0  0  0  0  0  0  0  0  0  0
   43.9164   17.9759    6.8012 C   0  0  0  0  0  0  0  0  0  0  0  0
   44.6796   19.2015    7.2664 C   0  0  0  0  0  0  0  0  0  0  0  0
   46.1711   18.9467    7.1692 C   0  0  0  0  0  0  0  0  0  0  0  0
   46.9337   20.1724    7.6342 C   0  0  0  0  0  0  0  0  0  0  0  0
   48.4257   19.9179    7.5377 C   0  0  0  0  0  0  0  0  0  0  0  0
   49.1882   21.1437    8.0029 C   0  0  0  0  0  0  0  0  0  0  0  0
   50.6802   20.8890    7.9063 C   0  0  0  0  0  0  0  0  0  0  0  0
   51.4427   22.1147    8.3714 C   0  0  0  0  0  0  0  0  0  0  0  0
   52.9347   21.8593    8.2766 C   0  0  0  0  0  0  0  0  0  0  0  0
   53.6971   23.0857    8.7400 C   0  0  0  0  0  0  0  0  0  0  0  0
   55.1891   22.8297    8.6470 C   0  0  0  0  0  0  0  0  0  0  0  0
   55.9515   24.0561    9.1102 C   0  0  0  0  0  0  0  0  0  0  0  0
   57.4435   23.8007    9.0155 C   0  0  0  0  0  0  0  0  0  0  0  0
   58.2060   25.0278    9.4770 C   0  0  0  0  0  0  0  0  0  0  0  0
   59.6979   24.7717    9.3840 C   0  0  0  0  0  0  0  0  0  0  0  0
   60.4604   25.9982    9.8472 C   0  0  0  0  0  0  0  0  0  0  0  0
   61.9523   25.7428    9.7525 C   0  0  0  0  0  0  0  0  0  0  0  0
   62.7148   26.9699   10.2140 C   0  0  0  0  0  0  0  0  0  0  0  0
   64.2067   26.7145   10.1192 C   0  0  0  0  0  0  0  0  0  0  0  0
   64.9692   27.9410   10.5824 C   0  0  0  0  0  0  0  0  0  0  0  0
   66.4611   27.6856   10.4876 C   0  0  0  0  0  0  0  0  0  0  0  0
   67.2236   28.9120   10.9509 C   0  0  0  0  0  0  0  0  0  0  0  0
   68.7155   28.6566   10.8561 C   0  0  0  0  0  0  0  0  0  0  0  0
   69.4780   29.8830   11.3194 C   0  0  0  0  0  0  0  0  0  0  0  0
   70.9699   29.6276   11.2246 C   0  0  0  0  0  0  0  0  0  0  0  0
   71.7324   30.8541   11.6879 C   0  0  0  0  0  0  0  0  0  0  0  0
   73.2243   30.5986   11.5931 C   0  0  0  0  0  0  0  0  0  0  0  0
   73.9868   31.8251   12.0564 C   0  0  0  0  0  0  0  0  0  0  0  0
   75.4788   31.5697   11.9616 C   0  0  0  0  0  0  0  0  0  0  0  0
   76.2412   32.7969   12.4230 C   0  0  0  0  0  0  0  0  0  0  0  0
   77.7332   32.5415   12.3282 C   0  0  0  0  0  0  0  0  0  0  0  0
   78.4957   33.7687   12.7896 C   0  0  0  0  0  0  0  0  0  0  0  0
   79.9878   33.5133   12.6948 C   0  0  0  0  0  0  0  0  0  0  0  0
   80.7506   34.7405   13.1563 C   0  0  0  0  0  0  0  0  0  0  0  0
   82.2431   34.4855   13.0617 C   0  0  0  0  0  0  0  0  0  0  0  0
   83.0065   35.7123   13.5250 C   0  0  0  0  0  0  0  0  0  0  0  0
   84.5001   35.4589   13.4310 C   0  0  0  0  0  0  0  0  0  0  0  0
   85.2654   36.6866   13.8948 C   0  0  0  0  0  0  0  0  0  0  0  0
   86.7612   36.4360   13.7997 C   0  0  0  0  0  0  0  0  0  0  0  0
   87.5370   37.6604   14.2643 C   0  0  0  0  0  0  0  0  0  0  0  0
   89.0282   37.4074   14.1683 C   0  0  0  0  0  0  0  0  0  0  0  0
   24.5116  -13.9213   16.0896 H   0  0  0  0  0  0  0  0  0  0  0  0
   26.2999  -12.1493   15.8548 H   0  0  0  0  0  0  0  0  0  0  0  0
   25.0512  -11.6141   16.9740 H   0  0  0  0  0  0  0  0  0  0  0  0
   23.9424  -10.3282   15.1362 H   0  0  0  0  0  0  0  0  0  0  0  0
   25.2039  -10.8691   14.0049 H   0  0  0  0  0  0  0  0  0  0  0  0
   24.5340   -8.1190   14.7449 H   0  0  0  0  0  0  0  0  0  0  0  0
   25.7985   -8.6631   13.6090 H   0  0  0  0  0  0  0  0  0  0  0  0
   27.5330   -7.5885   15.0508 H   0  0  0  0  0  0  0  0  0  0  0  0
   26.2897   -7.0525   16.1651 H   0  0  0  0  0  0  0  0  0  0  0  0
   25.1831   -5.7543   14.3147 H   0  0  0  0  0  0  0  0  0  0  0  0
   26.4343   -6.2936   13.1933 H   0  0  0  0  0  0  0  0  0  0  0  0
   28.1800   -5.2018   14.6129 H   0  0  0  0  0  0  0  0  0  0  0  0
   26.9284   -4.6629   15.7373 H   0  0  0  0  0  0  0  0  0  0  0  0
   25.8172   -3.3893   13.8907 H   0  0  0  0  0  0  0  0  0  0  0  0
   27.0666   -3.9288   12.7656 H   0  0  0  0  0  0  0  0  0  0  0  0
   28.8160   -2.8374   14.1831 H   0  0  0  0  0  0  0  0  0  0  0  0
   27.5674   -2.2988   15.3102 H   0  0  0  0  0  0  0  0  0  0  0  0
   26.4534   -1.0235   13.4679 H   0  0  0  0  0  0  0  0  0  0  0  0
   27.7003   -1.5631   12.3396 H   0  0  0  0  0  0  0  0  0  0  0  0
   29.4532   -0.4740   13.7571 H   0  0  0  0  0  0  0  0  0  0  0  0
   28.2055    0.0669   14.8837 H   0  0  0  0  0  0  0  0  0  0  0  0
   27.0925    1.3417   13.0388 H   0  0  0  0  0  0  0  0  0  0  0  0
   28.3403    0.8005   11.9121 H   0  0  0  0  0  0  0  0  0  0  0  0
   30.0916    1.8937   13.3284 H   0  0  0  0  0  0  0  0  0  0  0  0
   28.8430    2.4358   14.4528 H   0  0  0  0  0  0  0  0  0  0  0  0
   27.7323    3.7108   12.6059 H   0  0  0  0  0  0  0  0  0  0  0  0
   28.9833    3.1704   11.4804 H   0  0  0  0  0  0  0  0  0  0  0  0
   30.7333    4.2550   12.8915 H   0  0  0  0  0  0  0  0  0  0  0  0
   29.4820    4.7978   14.0276 H   0  0  0  0  0  0  0  0  0  0  0  0
   28.4530    6.0048   12.2136 H   0  0  0  0  0  0  0  0  0  0  0  0
   31.3400    6.5213   12.4822 H   0  0  0  0  0  0  0  0  0  0  0  0
   30.0907    7.0626   13.6212 H   0  0  0  0  0  0  0  0  0  0  0  0
   28.9729    8.3317   11.7758 H   0  0  0  0  0  0  0  0  0  0  0  0
   30.2408    7.8116   10.6415 H   0  0  0  0  0  0  0  0  0  0  0  0
   31.8494    8.8679   12.0365 H   0  0  0  0  0  0  0  0  0  0  0  0
   29.6371   10.5765   11.4582 H   0  0  0  0  0  0  0  0  0  0  0  0
   31.2953   11.5911   12.7753 H   0  0  0  0  0  0  0  0  0  0  0  0
   33.1048   10.2476   12.2496 H   0  0  0  0  0  0  0  0  0  0  0  0
   32.4926    9.8037   10.0340 H   0  0  0  0  0  0  0  0  0  0  0  0
   31.7957   12.0068    9.5953 H   0  0  0  0  0  0  0  0  0  0  0  0
   33.3808   13.0728   10.9247 H   0  0  0  0  0  0  0  0  0  0  0  0
   35.3020   11.8393   10.3544 H   0  0  0  0  0  0  0  0  0  0  0  0
   34.8571   11.4801    8.0558 H   0  0  0  0  0  0  0  0  0  0  0  0
   34.0971   13.6613    7.6090 H   0  0  0  0  0  0  0  0  0  0  0  0
   35.6134   14.7359    8.9876 H   0  0  0  0  0  0  0  0  0  0  0  0
   37.4474   13.5026    8.4921 H   0  0  0  0  0  0  0  0  0  0  0  0
   37.0263   13.1630    6.2512 H   0  0  0  0  0  0  0  0  0  0  0  0
   36.1852   15.3396    5.6954 H   0  0  0  0  0  0  0  0  0  0  0  0
   37.4843   14.8740    4.6379 H   0  0  0  0  0  0  0  0  0  0  0  0
   37.7440   16.5222    7.0571 H   0  0  0  0  0  0  0  0  0  0  0  0
   39.7156   15.8177    4.9979 H   0  0  0  0  0  0  0  0  0  0  0  0
   39.7144   15.2121    6.6637 H   0  0  0  0  0  0  0  0  0  0  0  0
   39.8913   17.5011    7.5612 H   0  0  0  0  0  0  0  0  0  0  0  0
   39.9011   18.1511    5.9147 H   0  0  0  0  0  0  0  0  0  0  0  0
   41.9346   16.7672    5.4016 H   0  0  0  0  0  0  0  0  0  0  0  0
   41.9266   16.1446    7.0530 H   0  0  0  0  0  0  0  0  0  0  0  0
   42.1534   18.4715    7.9359 H   0  0  0  0  0  0  0  0  0  0  0  0
   42.1525   19.0986    6.2841 H   0  0  0  0  0  0  0  0  0  0  0  0
   44.1868   17.7370    5.7653 H   0  0  0  0  0  0  0  0  0  0  0  0
   44.1887   17.1092    7.4160 H   0  0  0  0  0  0  0  0  0  0  0  0
   44.4069   19.4407    8.3013 H   0  0  0  0  0  0  0  0  0  0  0  0
   44.4067   20.0671    6.6500 H   0  0  0  0  0  0  0  0  0  0  0  0
   46.4433   18.7074    6.1338 H   0  0  0  0  0  0  0  0  0  0  0  0
   46.4434   18.0808    7.7852 H   0  0  0  0  0  0  0  0  0  0  0  0
   46.6614   20.4118    8.6697 H   0  0  0  0  0  0  0  0  0  0  0  0
   46.6614   21.0384    7.0184 H   0  0  0  0  0  0  0  0  0  0  0  0
   48.6980   19.6786    6.5024 H   0  0  0  0  0  0  0  0  0  0  0  0
   48.6980   19.0520    8.1537 H   0  0  0  0  0  0  0  0  0  0  0  0
   48.9159   21.3830    9.0383 H   0  0  0  0  0  0  0  0  0  0  0  0
   48.9160   22.0096    7.3869 H   0  0  0  0  0  0  0  0  0  0  0  0
   50.9526   20.6497    6.8710 H   0  0  0  0  0  0  0  0  0  0  0  0
   50.9525   20.0231    8.5223 H   0  0  0  0  0  0  0  0  0  0  0  0
   51.1694   22.3549    9.4063 H   0  0  0  0  0  0  0  0  0  0  0  0
   51.1714   22.9803    7.7545 H   0  0  0  0  0  0  0  0  0  0  0  0
   53.2079   21.6178    7.2420 H   0  0  0  0  0  0  0  0  0  0  0  0
   53.2060   20.9945    8.8946 H   0  0  0  0  0  0  0  0  0  0  0  0
   53.4230   23.3281    9.7741 H   0  0  0  0  0  0  0  0  0  0  0  0
   53.4267   23.9502    8.1211 H   0  0  0  0  0  0  0  0  0  0  0  0
   55.4632   22.5872    7.6129 H   0  0  0  0  0  0  0  0  0  0  0  0
   55.4596   21.9653    9.2660 H   0  0  0  0  0  0  0  0  0  0  0  0
   55.6783   24.2977   10.1448 H   0  0  0  0  0  0  0  0  0  0  0  0
   55.6801   24.9208    8.4922 H   0  0  0  0  0  0  0  0  0  0  0  0
   57.7166   23.5578    7.9812 H   0  0  0  0  0  0  0  0  0  0  0  0
   57.7150   22.9368    9.6347 H   0  0  0  0  0  0  0  0  0  0  0  0
   57.9320   25.2716   10.5109 H   0  0  0  0  0  0  0  0  0  0  0  0
   57.9353   25.8914    8.8570 H   0  0  0  0  0  0  0  0  0  0  0  0
   59.9720   24.5292    8.3499 H   0  0  0  0  0  0  0  0  0  0  0  0
   59.9684   23.9074   10.0030 H   0  0  0  0  0  0  0  0  0  0  0  0
   60.1872   26.2398   10.8818 H   0  0  0  0  0  0  0  0  0  0  0  0
   60.1889   26.8629    9.2291 H   0  0  0  0  0  0  0  0  0  0  0  0
   62.2253   25.4999    8.7182 H   0  0  0  0  0  0  0  0  0  0  0  0
   62.2239   24.8789   10.3716 H   0  0  0  0  0  0  0  0  0  0  0  0
   62.4418   27.2128   11.2483 H   0  0  0  0  0  0  0  0  0  0  0  0
   62.4432   27.8338    9.5948 H   0  0  0  0  0  0  0  0  0  0  0  0
   64.4798   26.4729    9.0845 H   0  0  0  0  0  0  0  0  0  0  0  0
   64.4782   25.8498   10.7372 H   0  0  0  0  0  0  0  0  0  0  0  0
   64.6960   28.1825   11.6170 H   0  0  0  0  0  0  0  0  0  0  0  0
   64.6977   28.8057    9.9643 H   0  0  0  0  0  0  0  0  0  0  0  0
   66.7343   27.4440    9.4530 H   0  0  0  0  0  0  0  0  0  0  0  0
   66.7326   26.8208   11.1056 H   0  0  0  0  0  0  0  0  0  0  0  0
   66.9504   29.1535   11.9855 H   0  0  0  0  0  0  0  0  0  0  0  0
   66.9521   29.7767   10.3329 H   0  0  0  0  0  0  0  0  0  0  0  0
   68.9887   28.4150    9.8215 H   0  0  0  0  0  0  0  0  0  0  0  0
   68.9870   27.7918   11.4741 H   0  0  0  0  0  0  0  0  0  0  0  0
   69.2048   30.1246   12.3540 H   0  0  0  0  0  0  0  0  0  0  0  0
   69.2065   30.7478   10.7014 H   0  0  0  0  0  0  0  0  0  0  0  0
   71.2431   29.3861   10.1900 H   0  0  0  0  0  0  0  0  0  0  0  0
   71.2414   28.7629   11.8426 H   0  0  0  0  0  0  0  0  0  0  0  0
   71.4592   31.0956   12.7225 H   0  0  0  0  0  0  0  0  0  0  0  0
   71.4609   31.7188   11.0699 H   0  0  0  0  0  0  0  0  0  0  0  0
   73.4975   30.3571   10.5585 H   0  0  0  0  0  0  0  0  0  0  0  0
   73.4958   29.7339   12.2112 H   0  0  0  0  0  0  0  0  0  0  0  0
   73.7137   32.0667   13.0910 H   0  0  0  0  0  0  0  0  0  0  0  0
   73.7153   32.6898   11.4383 H   0  0  0  0  0  0  0  0  0  0  0  0
   75.7517   31.3268   10.9272 H   0  0  0  0  0  0  0  0  0  0  0  0
   75.7504   30.7058   12.5807 H   0  0  0  0  0  0  0  0  0  0  0  0
   75.9683   33.0398   13.4574 H   0  0  0  0  0  0  0  0  0  0  0  0
   75.9696   33.6607   11.8039 H   0  0  0  0  0  0  0  0  0  0  0  0
   78.0061   32.2985   11.2939 H   0  0  0  0  0  0  0  0  0  0  0  0
   78.0049   31.6776   12.9474 H   0  0  0  0  0  0  0  0  0  0  0  0
   78.2227   34.0116   13.8239 H   0  0  0  0  0  0  0  0  0  0  0  0
   78.2240   34.6325   12.1704 H   0  0  0  0  0  0  0  0  0  0  0  0
   80.2606   33.2703   11.6605 H   0  0  0  0  0  0  0  0  0  0  0  0
   80.2593   32.6494   13.3140 H   0  0  0  0  0  0  0  0  0  0  0  0
   80.4773   34.9833   14.1906 H   0  0  0  0  0  0  0  0  0  0  0  0
   80.4787   35.6043   12.5371 H   0  0  0  0  0  0  0  0  0  0  0  0
   82.5157   34.2436   12.0270 H   0  0  0  0  0  0  0  0  0  0  0  0
   82.5141   33.6206   13.6796 H   0  0  0  0  0  0  0  0  0  0  0  0
   82.7324   35.9535   14.5594 H   0  0  0  0  0  0  0  0  0  0  0  0
   82.7340   36.5766   12.9069 H   0  0  0  0  0  0  0  0  0  0  0  0
   84.7721   35.2165   12.3962 H   0  0  0  0  0  0  0  0  0  0  0  0
   84.7705   34.5935   14.0485 H   0  0  0  0  0  0  0  0  0  0  0  0
   84.9907   36.9260   14.9294 H   0  0  0  0  0  0  0  0  0  0  0  0
   84.9905   37.5505   13.2772 H   0  0  0  0  0  0  0  0  0  0  0  0
   87.0299   36.1941   12.7639 H   0  0  0  0  0  0  0  0  0  0  0  0
   87.0299   35.5679   14.4143 H   0  0  0  0  0  0  0  0  0  0  0  0
   87.2693   37.9007   15.2999 H   0  0  0  0  0  0  0  0  0  0  0  0
   87.2693   38.5272   13.6488 H   0  0  0  0  0  0  0  0  0  0  0  0
   89.3172   36.5573   14.7945 H   0  0  0  0  0  0  0  0  0  0  0  0
   89.5842   38.2875   14.5023 H   0  0  0  0  0  0  0  0  0  0  0  0
   89.3172   37.1868   13.1358 H   0  0  0  0  0  0  0  0  0  0  0  0
  1  2  2  0  0  0  0
  2  3  1  0  0  0  0
  2 81  1  0  0  0  0
  3  4  1  0  0  0  0
  3 82  1  0  0  0  0
  3 83  1  0  0  0  0
  4  5  1  0  0  0  0
  4 84  1  0  0  0  0
  4 85  1  0  0  0  0
  5  6  1  0  0  0  0
  6  7  1  0  0  0  0
  6 86  1  0  0  0  0
  6 87  1  0  0  0  0
  7  8  1  0  0  0  0
  7 88  1  0  0  0  0
  7 89  1  0  0  0  0
  8  9  1  0  0  0  0
  8 90  1  0  0  0  0
  8 91  1  0  0  0  0
  9 10  1  0  0  0  0
  9 92  1  0  0  0  0
  9 93  1  0  0  0  0
 10 11  1  0  0  0  0
 10 94  1  0  0  0  0
 10 95  1  0  0  0  0
 11 12  1  0  0  0  0
 11 96  1  0  0  0  0
 11 97  1  0  0  0  0
 12 13  1  0  0  0  0
 12 98  1  0  0  0  0
 12 99  1  0  0  0  0
 13 14  1  0  0  0  0
 13100  1  0  0  0  0
 13101  1  0  0  0  0
 14 15  1  0  0  0  0
 14102  1  0  0  0  0
 14103  1  0  0  0  0
 15 16  1  0  0  0  0
 15104  1  0  0  0  0
 15105  1  0  0  0  0
 16 17  1  0  0  0  0
 16106  1  0  0  0  0
 16107  1  0  0  0  0
 17 18  1  0  0  0  0
 17108  1  0  0  0  0
 17109  1  0  0  0  0
 18 19  1  0  0  0  0
 18110  1  0  0  0  0
 19 20  1  0  0  0  0
 19111  1  0  0  0  0
 19112  1  0  0  0  0
 20 21  1  0  0  0  0
 20113  1  0  0  0  0
 20114  1  0  0  0  0
 21 22  1  0  0  0  0
 21115  1  0  0  0  0
 22 23  1  0  0  0  0
 22116  1  0  0  0  0
 23 24  1  0  0  0  0
 23117  1  0  0  0  0
 24 25  1  0  0  0  0
 24118  1  0  0  0  0
 25 26  1  0  0  0  0
 25119  1  0  0  0  0
 26 27  1  0  0  0  0
 26120  1  0  0  0  0
 27 28  1  0  0  0  0
 27121  1  0  0  0  0
 28 29  1  0  0  0  0
 28122  1  0  0  0  0
 29 30  1  0  0  0  0
 29123  1  0  0  0  0
 30 31  1  0  0  0  0
 30124  1  0  0  0  0
 31 32  1  0  0  0  0
 31125  1  0  0  0  0
 32 33  1  0  0  0  0
 32126  1  0  0  0  0
 33 34  1  0  0  0  0
 33127  1  0  0  0  0
 34 35  1  0  0  0  0
 34128  1  0  0  0  0
 34129  1  0  0  0  0
 35 36  1  0  0  0  0
 35130  1  0  0  0  0
 36 37  1  0  0  0  0
 36131  1  0  0  0  0
 36132  1  0  0  0  0
 37 38  1  0  0  0  0
 37133  1  0  0  0  0
 37134  1  0  0  0  0
 38 39  1  0  0  0  0
 38135  1  0  0  0  0
 38136  1  0  0  0  0
 39 40  1  0  0  0  0
 39137  1  0  0  0  0
 39138  1  0  0  0  0
 40 41  1  0  0  0  0
 40139  1  0  0  0  0
 40140  1  0  0  0  0
 41 42  1  0  0  0  0
 41141  1  0  0  0  0
 41142  1  0  0  0  0
 42 43  1  0  0  0  0
 42143  1  0  0  0  0
 42144  1  0  0  0  0
 43 44  1  0  0  0  0
 43145  1  0  0  0  0
 43146  1  0  0  0  0
 44 45  1  0  0  0  0
 44147  1  0  0  0  0
 44148  1  0  0  0  0
 45 46  1  0  0  0  0
 45149  1  0  0  0  0
 45150  1  0  0  0  0
 46 47  1  0  0  0  0
 46151  1  0  0  0  0
 46152  1  0  0  0  0
 47 48  1  0  0  0  0
 47153  1  0  0  0  0
 47154  1  0  0  0  0
 48 49  1  0  0  0  0
 48155  1  0  0  0  0
 48156  1  0  0  0  0
 49 50  1  0  0  0  0
 49157  1  0  0  0  0
 49158  1  0  0  0  0
 50 51  1  0  0  0  0
 50159  1  0  0  0  0
 50160  1  0  0  0  0
 51 52  1  0  0  0  0
 51161  1  0  0  0  0
 51162  1  0  0  0  0
 52 53  1  0  0  0  0
 52163  1  0  0  0  0
 52164  1  0  0  0  0
 53 54  1  0  0  0  0
 53165  1  0  0  0  0
 53166  1  0  0  0  0
 54 55  1  0  0  0  0
 54167  1  0  0  0  0
 54168  1  0  0  0  0
 55 56  1  0  0  0  0
 55169  1  0  0  0  0
 55170  1  0  0  0  0
 56 57  1  0  0  0  0
 56171  1  0  0  0  0
 56172  1  0  0  0  0
 57 58  1  0  0  0  0
 57173  1  0  0  0  0
 57174  1  0  0  0  0
 58 59  1  0  0  0  0
 58175  1  0  0  0  0
 58176  1  0  0  0  0
 59 60  1  0  0  0  0
 59177  1  0  0  0  0
 59178  1  0  0  0  0
 60 61  1  0  0  0  0
 60179  1  0  0  0  0
 60180  1  0  0  0  0
 61 62  1  0  0  0  0
 61181  1  0  0  0  0
 61182  1  0  0  0  0
 62 63  1  0  0  0  0
 62183  1  0  0  0  0
 62184  1  0  0  0  0
 63 64  1  0  0  0  0
 63185  1  0  0  0  0
 63186  1  0  0  0  0
 64 65  1  0  0  0  0
 64187  1  0  0  0  0
 64188  1  0  0  0  0
 65 66  1  0  0  0  0
 65189  1  0  0  0  0
 65190  1  0  0  0  0
 66 67  1  0  0  0  0
 66191  1  0  0  0  0
 66192  1  0  0  0  0
 67 68  1  0  0  0  0
 67193  1  0  0  0  0
 67194  1  0  0  0  0
 68 69  1  0  0  0  0
 68195  1  0  0  0  0
 68196  1  0  0  0  0
 69 70  1  0  0  0  0
 69197  1  0  0  0  0
 69198  1  0  0  0  0
 70 71  1  0  0  0  0
 70199  1  0  0  0  0
 70200  1  0  0  0  0
 71 72  1  0  0  0  0
 71201  1  0  0  0  0
 71202  1  0  0  0  0
 72 73  1  0  0  0  0
 72203  1  0  0  0  0
 72204  1  0  0  0  0
 73 74  1  0  0  0  0
 73205  1  0  0  0  0
 73206  1  0  0  0  0
 74 75  1  0  0  0  0
 74207  1  0  0  0  0
 74208  1  0  0  0  0
 75 76  1  0  0  0  0
 75209  1  0  0  0  0
 75210  1  0  0  0  0
 76 77  1  0  0  0  0
 76211  1  0  0  0  0
 76212  1  0  0  0  0
 77 78  1  0  0  0  0
 77213  1  0  0  0  0
 77214  1  0  0  0  0
 78 79  1  0  0  0  0
 78215  1  0  0  0  0
 78216  1  0  0  0  0
 79 80  1  0  0  0  0
 79217  1  0  0  0  0
 79218  1  0  0  0  0
 80219  1  0  0  0  0
 80220  1  0  0  0  0
 80221  1  0  0  0  0
M  END
$$$$
