
 OpenBabel04232216483D

 75 76  0  0  0  0  0  0  0  0999 V2000
    3.5838    3.7432    1.1357 C   0  0  0  0  0  0  0  0  0  0  0  0
    4.9847    3.3719    1.7321 C   0  0  0  0  0  0  0  0  0  0  0  0
    4.7343    1.8519    1.9295 C   0  0  0  0  0  0  0  0  0  0  0  0
    5.2253    0.7316    1.3414 C   0  0  0  0  0  0  0  0  0  0  0  0
    6.4110    0.5799    0.5212 C   0  0  0  0  0  0  0  0  0  0  0  0
    6.8654   -0.8363    0.0446 C   0  0  0  0  0  0  0  0  0  0  0  0
    6.1952   -1.3331   -1.2731 C   0  0  0  0  0  0  0  0  0  0  0  0
    6.7300   -2.6607   -1.8893 C   0  0  0  0  0  0  0  0  0  0  0  0
    5.9761   -2.9687   -3.2067 C   0  0  0  0  0  0  0  0  0  0  0  0
    6.4087   -4.2447   -3.9446 C   0  0  0  0  0  0  0  0  0  0  0  0
    5.5960   -4.4217   -5.2403 C   0  0  0  0  0  0  0  0  0  0  0  0
    6.0103   -5.6803   -6.0137 C   0  0  0  0  0  0  0  0  0  0  0  0
    5.2016   -5.8575   -7.3003 C   0  0  0  0  0  0  0  0  0  0  0  0
    5.6262   -7.1153   -8.0491 C   0  0  0  0  0  0  0  0  0  0  0  0
    7.1490    1.6649    0.2147 C   0  0  0  0  0  0  0  0  0  0  0  0
    6.6107    3.0554    0.1956 C   0  0  0  0  0  0  0  0  0  0  0  0
    5.9192    3.2866   -0.9474 C   0  0  0  0  0  0  0  0  0  0  0  0
    6.7690    3.3949   -2.1041 C   0  0  0  0  0  0  0  0  0  0  0  0
    7.2990    4.6416   -2.0277 C   0  0  0  0  0  0  0  0  0  0  0  0
    8.6112    4.9147   -1.4840 C   0  0  0  0  0  0  0  0  0  0  0  0
    9.4974    3.9980   -0.6565 C   0  0  0  0  0  0  0  0  0  0  0  0
    8.8994    6.1989   -1.6214 C   0  0  0  0  0  0  0  0  0  0  0  0
   10.2050    6.7242   -1.4147 C   0  0  0  0  0  0  0  0  0  0  0  0
   10.3892    7.9267   -1.9101 C   0  0  0  0  0  0  0  0  0  0  0  0
   11.6593    8.6106   -1.6102 C   0  0  0  0  0  0  0  0  0  0  0  0
   11.5051    9.8931   -1.1978 C   0  0  0  0  0  0  0  0  0  0  0  0
   11.8021   10.0402    0.2605 C   0  0  0  0  0  0  0  0  0  0  0  0
   10.7575    9.7449    1.0737 C   0  0  0  0  0  0  0  0  0  0  0  0
   10.1479    8.3488    1.3982 C   0  0  0  0  0  0  0  0  0  0  0  0
    8.8409    7.8917    1.2246 C   0  0  0  0  0  0  0  0  0  0  0  0
    7.9138    6.4287    1.4075 C   0  0  0  0  0  0  0  0  0  0  0  0
    6.7092    5.6230    1.3338 C   0  0  0  0  0  0  0  0  0  0  0  0
    6.2284    3.9473    1.3677 C   0  0  0  0  0  0  0  0  0  0  0  0
    3.1827    2.8750    0.5565 H   0  0  0  0  0  0  0  0  0  0  0  0
    3.5738    4.5499    0.4039 H   0  0  0  0  0  0  0  0  0  0  0  0
    2.8251    3.9182    1.9045 H   0  0  0  0  0  0  0  0  0  0  0  0
    3.8297    1.6670    2.5220 H   0  0  0  0  0  0  0  0  0  0  0  0
    4.6873   -0.2038    1.5027 H   0  0  0  0  0  0  0  0  0  0  0  0
    6.6966   -1.5741    0.8380 H   0  0  0  0  0  0  0  0  0  0  0  0
    7.9513   -0.8255   -0.1261 H   0  0  0  0  0  0  0  0  0  0  0  0
    6.3030   -0.5534   -2.0374 H   0  0  0  0  0  0  0  0  0  0  0  0
    5.1208   -1.4601   -1.0940 H   0  0  0  0  0  0  0  0  0  0  0  0
    6.5942   -3.4948   -1.1897 H   0  0  0  0  0  0  0  0  0  0  0  0
    7.8047   -2.5847   -2.0985 H   0  0  0  0  0  0  0  0  0  0  0  0
    6.1026   -2.1190   -3.8899 H   0  0  0  0  0  0  0  0  0  0  0  0
    4.9044   -3.0445   -2.9882 H   0  0  0  0  0  0  0  0  0  0  0  0
    6.2666   -5.1211   -3.3026 H   0  0  0  0  0  0  0  0  0  0  0  0
    7.4775   -4.1916   -4.1943 H   0  0  0  0  0  0  0  0  0  0  0  0
    5.7338   -3.5447   -5.8835 H   0  0  0  0  0  0  0  0  0  0  0  0
    4.5278   -4.4797   -4.9980 H   0  0  0  0  0  0  0  0  0  0  0  0
    5.8664   -6.5632   -5.3782 H   0  0  0  0  0  0  0  0  0  0  0  0
    7.0744   -5.6236   -6.2616 H   0  0  0  0  0  0  0  0  0  0  0  0
    5.3399   -4.9877   -7.9568 H   0  0  0  0  0  0  0  0  0  0  0  0
    4.1314   -5.9228   -7.0709 H   0  0  0  0  0  0  0  0  0  0  0  0
    6.6863   -7.0673   -8.3222 H   0  0  0  0  0  0  0  0  0  0  0  0
    5.0439   -7.2315   -8.9668 H   0  0  0  0  0  0  0  0  0  0  0  0
    5.4729   -8.0062   -7.4319 H   0  0  0  0  0  0  0  0  0  0  0  0
    8.0542    1.4772   -0.3397 H   0  0  0  0  0  0  0  0  0  0  0  0
    5.1119    4.0243   -0.9799 H   0  0  0  0  0  0  0  0  0  0  0  0
    7.3879    2.5469   -2.3234 H   0  0  0  0  0  0  0  0  0  0  0  0
    6.5988    5.4476   -1.7708 H   0  0  0  0  0  0  0  0  0  0  0  0
    9.0584    3.0643   -0.3789 H   0  0  0  0  0  0  0  0  0  0  0  0
    9.7410    4.4617    0.3141 H   0  0  0  0  0  0  0  0  0  0  0  0
   10.4195    3.7683   -1.1811 H   0  0  0  0  0  0  0  0  0  0  0  0
    8.1429    6.8964   -1.9477 H   0  0  0  0  0  0  0  0  0  0  0  0
   10.9564    6.1617   -0.8619 H   0  0  0  0  0  0  0  0  0  0  0  0
    9.5893    8.5031   -2.2971 H   0  0  0  0  0  0  0  0  0  0  0  0
   12.3806    7.9661   -1.1393 H   0  0  0  0  0  0  0  0  0  0  0  0
   10.7132   10.5185   -1.6038 H   0  0  0  0  0  0  0  0  0  0  0  0
   12.8013    9.5830    0.3574 H   0  0  0  0  0  0  0  0  0  0  0  0
   10.0137   10.5534    1.0646 H   0  0  0  0  0  0  0  0  0  0  0  0
   10.9720    7.6823    1.7931 H   0  0  0  0  0  0  0  0  0  0  0  0
    8.2132    8.6998    0.8075 H   0  0  0  0  0  0  0  0  0  0  0  0
    7.2210    7.3151    1.5868 H   0  0  0  0  0  0  0  0  0  0  0  0
    5.7669    6.1702    1.2093 H   0  0  0  0  0  0  0  0  0  0  0  0
  1  2  1  0  0  0  0
  1 34  1  0  0  0  0
  1 35  1  0  0  0  0
  1 36  1  0  0  0  0
  2  3  1  0  0  0  0
  2 33  2  0  0  0  0
  3  4  2  0  0  0  0
  3 37  1  0  0  0  0
  4  5  1  0  0  0  0
  4 38  1  0  0  0  0
  5  6  1  0  0  0  0
  5 15  2  0  0  0  0
  6  7  1  0  0  0  0
  6 39  1  0  0  0  0
  6 40  1  0  0  0  0
  7  8  1  0  0  0  0
  7 41  1  0  0  0  0
  7 42  1  0  0  0  0
  8  9  1  0  0  0  0
  8 43  1  0  0  0  0
  8 44  1  0  0  0  0
  9 10  1  0  0  0  0
  9 45  1  0  0  0  0
  9 46  1  0  0  0  0
 10 11  1  0  0  0  0
 10 47  1  0  0  0  0
 10 48  1  0  0  0  0
 11 12  1  0  0  0  0
 11 49  1  0  0  0  0
 11 50  1  0  0  0  0
 12 13  1  0  0  0  0
 12 51  1  0  0  0  0
 12 52  1  0  0  0  0
 13 14  1  0  0  0  0
 13 53  1  0  0  0  0
 13 54  1  0  0  0  0
 14 55  1  0  0  0  0
 14 56  1  0  0  0  0
 14 57  1  0  0  0  0
 15 16  1  0  0  0  0
 15 58  1  0  0  0  0
 16 17  2  3  0  0  0
 16 33  1  0  0  0  0
 17 18  1  0  0  0  0
 17 59  1  0  0  0  0
 18 19  2  3  0  0  0
 18 60  1  0  0  0  0
 19 20  1  0  0  0  0
 19 61  1  0  0  0  0
 20 21  1  0  0  0  0
 20 22  2  3  0  0  0
 21 62  1  0  0  0  0
 21 63  1  0  0  0  0
 21 64  1  0  0  0  0
 22 23  1  0  0  0  0
 22 65  1  0  0  0  0
 23 24  2  3  0  0  0
 23 66  1  0  0  0  0
 24 25  1  0  0  0  0
 24 67  1  0  0  0  0
 25 26  2  3  0  0  0
 25 68  1  0  0  0  0
 26 27  1  0  0  0  0
 26 69  1  0  0  0  0
 27 28  2  3  0  0  0
 27 70  1  0  0  0  0
 28 29  1  0  0  0  0
 28 71  1  0  0  0  0
 29 30  2  3  0  0  0
 29 72  1  0  0  0  0
 30 31  1  0  0  0  0
 30 73  1  0  0  0  0
 31 32  2  3  0  0  0
 31 74  1  0  0  0  0
 32 33  1  0  0  0  0
 32 75  1  0  0  0  0
M  END
$$$$
