
 OpenBabel04232217023D

 91 90  0  0  0  0  0  0  0  0999 V2000
    9.7522    0.8734    4.1581 O   0  0  0  0  0  0  0  0  0  0  0  0
    9.3330    0.4289    5.4814 O   0  0  0  0  0  0  0  0  0  0  0  0
   10.0374   -1.0092    5.8896 S   0  0  0  0  0  0  0  0  0  0  0  0
    9.2996   -2.1072    4.6231 C   0  0  0  0  0  0  0  0  0  0  0  0
    9.8533   -3.5191    4.8647 C   0  0  0  0  0  0  0  0  0  0  0  0
    9.3054   -4.5247    3.8484 C   0  0  0  0  0  0  0  0  0  0  0  0
    9.8569   -5.9223    4.0813 C   0  0  0  0  0  0  0  0  0  0  0  0
    9.2167   -7.1401    2.8592 S   0  0  0  0  0  0  0  0  0  0  0  0
    9.8224   -6.4584    1.0066 S   0  0  0  0  0  0  0  0  0  0  0  0
   11.8934   -6.4495    1.0051 S   0  0  0  0  0  0  0  0  0  0  0  0
   12.5706   -8.3919    1.2825 S   0  0  0  0  0  0  0  0  0  0  0  0
   14.6681   -8.3546    1.2961 S   0  0  0  0  0  0  0  0  0  0  0  0
   15.3571  -10.3159    1.6233 S   0  0  0  0  0  0  0  0  0  0  0  0
   17.4643  -10.3012    1.6205 S   0  0  0  0  0  0  0  0  0  0  0  0
   18.1525  -12.2678    1.9488 S   0  0  0  0  0  0  0  0  0  0  0  0
   20.2618  -12.2561    1.9469 S   0  0  0  0  0  0  0  0  0  0  0  0
   20.9532  -14.2222    2.2750 S   0  0  0  0  0  0  0  0  0  0  0  0
   23.0628  -14.2070    2.2725 S   0  0  0  0  0  0  0  0  0  0  0  0
   23.7541  -16.1726    2.6006 S   0  0  0  0  0  0  0  0  0  0  0  0
   25.8633  -16.1595    2.5984 S   0  0  0  0  0  0  0  0  0  0  0  0
   26.5538  -18.1256    2.9266 S   0  0  0  0  0  0  0  0  0  0  0  0
   28.6633  -18.1125    2.9244 S   0  0  0  0  0  0  0  0  0  0  0  0
   29.3539  -20.0784    3.2526 S   0  0  0  0  0  0  0  0  0  0  0  0
   31.4633  -20.0654    3.2504 S   0  0  0  0  0  0  0  0  0  0  0  0
   32.1539  -22.0313    3.5785 S   0  0  0  0  0  0  0  0  0  0  0  0
   34.2633  -22.0182    3.5763 S   0  0  0  0  0  0  0  0  0  0  0  0
   34.9539  -23.9842    3.9045 S   0  0  0  0  0  0  0  0  0  0  0  0
   37.0633  -23.9711    3.9023 S   0  0  0  0  0  0  0  0  0  0  0  0
   37.7539  -25.9371    4.2305 S   0  0  0  0  0  0  0  0  0  0  0  0
   39.8633  -25.9240    4.2283 S   0  0  0  0  0  0  0  0  0  0  0  0
   40.5539  -27.8900    4.5564 S   0  0  0  0  0  0  0  0  0  0  0  0
   42.6632  -27.8769    4.5543 S   0  0  0  0  0  0  0  0  0  0  0  0
   43.3539  -29.8428    4.8824 S   0  0  0  0  0  0  0  0  0  0  0  0
   45.4632  -29.8298    4.8802 S   0  0  0  0  0  0  0  0  0  0  0  0
   46.1539  -31.7957    5.2084 S   0  0  0  0  0  0  0  0  0  0  0  0
   48.2632  -31.7826    5.2062 S   0  0  0  0  0  0  0  0  0  0  0  0
   48.9539  -33.7486    5.5344 S   0  0  0  0  0  0  0  0  0  0  0  0
   51.0632  -33.7355    5.5322 S   0  0  0  0  0  0  0  0  0  0  0  0
   51.7538  -35.7015    5.8603 S   0  0  0  0  0  0  0  0  0  0  0  0
   53.8632  -35.6884    5.8582 S   0  0  0  0  0  0  0  0  0  0  0  0
   54.5538  -37.6544    6.1863 S   0  0  0  0  0  0  0  0  0  0  0  0
   56.6632  -37.6413    6.1841 S   0  0  0  0  0  0  0  0  0  0  0  0
   57.3538  -39.6073    6.5123 S   0  0  0  0  0  0  0  0  0  0  0  0
   59.4632  -39.5942    6.5101 S   0  0  0  0  0  0  0  0  0  0  0  0
   60.1538  -41.5601    6.8382 S   0  0  0  0  0  0  0  0  0  0  0  0
   62.2632  -41.5471    6.8361 S   0  0  0  0  0  0  0  0  0  0  0  0
   62.9538  -43.5130    7.1642 S   0  0  0  0  0  0  0  0  0  0  0  0
   65.0632  -43.4999    7.1620 S   0  0  0  0  0  0  0  0  0  0  0  0
   65.7538  -45.4659    7.4902 S   0  0  0  0  0  0  0  0  0  0  0  0
   67.8632  -45.4528    7.4880 S   0  0  0  0  0  0  0  0  0  0  0  0
   68.5538  -47.4188    7.8162 S   0  0  0  0  0  0  0  0  0  0  0  0
   70.6632  -47.4057    7.8140 S   0  0  0  0  0  0  0  0  0  0  0  0
   71.3538  -49.3717    8.1421 S   0  0  0  0  0  0  0  0  0  0  0  0
   73.4632  -49.3586    8.1400 S   0  0  0  0  0  0  0  0  0  0  0  0
   74.1538  -51.3246    8.4681 S   0  0  0  0  0  0  0  0  0  0  0  0
   76.2632  -51.3115    8.4659 S   0  0  0  0  0  0  0  0  0  0  0  0
   76.9538  -53.2774    8.7941 S   0  0  0  0  0  0  0  0  0  0  0  0
   79.0631  -53.2644    8.7919 S   0  0  0  0  0  0  0  0  0  0  0  0
   79.7538  -55.2303    9.1201 S   0  0  0  0  0  0  0  0  0  0  0  0
   81.8631  -55.2172    9.1179 S   0  0  0  0  0  0  0  0  0  0  0  0
   82.5538  -57.1832    9.4460 S   0  0  0  0  0  0  0  0  0  0  0  0
   84.6631  -57.1701    9.4438 S   0  0  0  0  0  0  0  0  0  0  0  0
   85.3538  -59.1361    9.7720 S   0  0  0  0  0  0  0  0  0  0  0  0
   87.4631  -59.1230    9.7698 S   0  0  0  0  0  0  0  0  0  0  0  0
   88.1537  -61.0890   10.0980 S   0  0  0  0  0  0  0  0  0  0  0  0
   90.2631  -61.0759   10.0958 S   0  0  0  0  0  0  0  0  0  0  0  0
   90.9537  -63.0419   10.4239 S   0  0  0  0  0  0  0  0  0  0  0  0
   93.0631  -63.0288   10.4218 S   0  0  0  0  0  0  0  0  0  0  0  0
   93.7537  -64.9947   10.7499 S   0  0  0  0  0  0  0  0  0  0  0  0
   95.8630  -64.9816   10.7477 S   0  0  0  0  0  0  0  0  0  0  0  0
   96.5537  -66.9473   11.0758 S   0  0  0  0  0  0  0  0  0  0  0  0
   98.6628  -66.9343   11.0737 S   0  0  0  0  0  0  0  0  0  0  0  0
   99.3518  -68.9009   11.4019 S   0  0  0  0  0  0  0  0  0  0  0  0
  101.4611  -68.8880   11.3998 S   0  0  0  0  0  0  0  0  0  0  0  0
  102.1517  -70.8534   11.7278 S   0  0  0  0  0  0  0  0  0  0  0  0
  104.2587  -70.8374   11.7254 S   0  0  0  0  0  0  0  0  0  0  0  0
  104.9454  -72.7991   12.0527 S   0  0  0  0  0  0  0  0  0  0  0  0
  107.0406  -72.7732   12.0293 S   0  0  0  0  0  0  0  0  0  0  0  0
  107.7236  -74.7032   12.4127 S   0  0  0  0  0  0  0  0  0  0  0  0
  109.8044  -74.6680   12.3605 S   0  0  0  0  0  0  0  0  0  0  0  0
  110.4119  -73.4694   13.9193 S   0  0  0  0  0  0  0  0  0  0  0  0
    9.2857    1.6878    4.1717 H   0  0  0  0  0  0  0  0  0  0  0  0
    9.5745   -1.7610    3.6211 H   0  0  0  0  0  0  0  0  0  0  0  0
    8.2063   -2.1038    4.7014 H   0  0  0  0  0  0  0  0  0  0  0  0
    9.5918   -3.8501    5.8770 H   0  0  0  0  0  0  0  0  0  0  0  0
   10.9485   -3.5041    4.8029 H   0  0  0  0  0  0  0  0  0  0  0  0
    9.5725   -4.1909    2.8399 H   0  0  0  0  0  0  0  0  0  0  0  0
    8.2132   -4.5484    3.9094 H   0  0  0  0  0  0  0  0  0  0  0  0
    9.5885   -6.2782    5.0843 H   0  0  0  0  0  0  0  0  0  0  0  0
   10.9493   -5.9369    4.0297 H   0  0  0  0  0  0  0  0  0  0  0  0
  111.7560  -73.5054   13.8258 H   0  0  0  0  0  0  0  0  0  0  0  0
  1  2  1  0  0  0  0
  1 82  1  0  0  0  0
  2  3  1  0  0  0  0
  3  4  1  0  0  0  0
  4  5  1  0  0  0  0
  4 83  1  0  0  0  0
  4 84  1  0  0  0  0
  5  6  1  0  0  0  0
  5 85  1  0  0  0  0
  5 86  1  0  0  0  0
  6  7  1  0  0  0  0
  6 87  1  0  0  0  0
  6 88  1  0  0  0  0
  7  8  1  0  0  0  0
  7 89  1  0  0  0  0
  7 90  1  0  0  0  0
  8  9  1  0  0  0  0
  9 10  1  0  0  0  0
 10 11  1  0  0  0  0
 11 12  1  0  0  0  0
 12 13  1  0  0  0  0
 13 14  1  0  0  0  0
 14 15  1  0  0  0  0
 15 16  1  0  0  0  0
 16 17  1  0  0  0  0
 17 18  1  0  0  0  0
 18 19  1  0  0  0  0
 19 20  1  0  0  0  0
 20 21  1  0  0  0  0
 21 22  1  0  0  0  0
 22 23  1  0  0  0  0
 23 24  1  0  0  0  0
 24 25  1  0  0  0  0
 25 26  1  0  0  0  0
 26 27  1  0  0  0  0
 27 28  1  0  0  0  0
 28 29  1  0  0  0  0
 29 30  1  0  0  0  0
 30 31  1  0  0  0  0
 31 32  1  0  0  0  0
 32 33  1  0  0  0  0
 33 34  1  0  0  0  0
 34 35  1  0  0  0  0
 35 36  1  0  0  0  0
 36 37  1  0  0  0  0
 37 38  1  0  0  0  0
 38 39  1  0  0  0  0
 39 40  1  0  0  0  0
 40 41  1  0  0  0  0
 41 42  1  0  0  0  0
 42 43  1  0  0  0  0
 43 44  1  0  0  0  0
 44 45  1  0  0  0  0
 45 46  1  0  0  0  0
 46 47  1  0  0  0  0
 47 48  1  0  0  0  0
 48 49  1  0  0  0  0
 49 50  1  0  0  0  0
 50 51  1  0  0  0  0
 51 52  1  0  0  0  0
 52 53  1  0  0  0  0
 53 54  1  0  0  0  0
 54 55  1  0  0  0  0
 55 56  1  0  0  0  0
 56 57  1  0  0  0  0
 57 58  1  0  0  0  0
 58 59  1  0  0  0  0
 59 60  1  0  0  0  0
 60 61  1  0  0  0  0
 61 62  1  0  0  0  0
 62 63  1  0  0  0  0
 63 64  1  0  0  0  0
 64 65  1  0  0  0  0
 65 66  1  0  0  0  0
 66 67  1  0  0  0  0
 67 68  1  0  0  0  0
 68 69  1  0  0  0  0
 69 70  1  0  0  0  0
 70 71  1  0  0  0  0
 71 72  1  0  0  0  0
 72 73  1  0  0  0  0
 73 74  1  0  0  0  0
 74 75  1  0  0  0  0
 75 76  1  0  0  0  0
 76 77  1  0  0  0  0
 77 78  1  0  0  0  0
 78 79  1  0  0  0  0
 79 80  1  0  0  0  0
 80 81  1  0  0  0  0
 81 91  1  0  0  0  0
M  END
$$$$
