
 OpenBabel04232216423D

171170  0  0  0  0  0  0  0  0999 V2000
   20.7199  -18.1318   14.6812 C   0  0  0  0  0  0  0  0  0  0  0  0
   21.5981  -17.8910   13.6882 C   0  0  0  0  0  0  0  0  0  0  0  0
   22.2136  -18.9962   12.8851 C   0  0  0  0  0  0  0  0  0  0  0  0
   23.6681  -18.9656   13.0102 N   0  0  0  0  0  0  0  0  0  0  0  0
   24.1968  -20.0344   12.2495 N   0  0  0  0  0  0  0  0  0  0  0  0
   25.6202  -20.0422   12.3740 N   0  0  0  0  0  0  0  0  0  0  0  0
   26.1816  -21.0829   11.5781 N   0  0  0  0  0  0  0  0  0  0  0  0
   25.8365  -20.9302   10.1978 N   0  0  0  0  0  0  0  0  0  0  0  0
   26.3350  -19.6751    9.7141 N   0  0  0  0  0  0  0  0  0  0  0  0
   27.7669  -19.6314    9.8642 N   0  0  0  0  0  0  0  0  0  0  0  0
   28.3316  -20.7129    9.1076 N   0  0  0  0  0  0  0  0  0  0  0  0
   27.9730  -20.5555    7.7379 N   0  0  0  0  0  0  0  0  0  0  0  0
   28.4445  -19.3005    7.2416 N   0  0  0  0  0  0  0  0  0  0  0  0
   29.8745  -19.2399    7.3645 N   0  0  0  0  0  0  0  0  0  0  0  0
   30.4584  -20.3116    6.6240 N   0  0  0  0  0  0  0  0  0  0  0  0
   30.0900  -20.1912    5.2534 N   0  0  0  0  0  0  0  0  0  0  0  0
   30.5494  -18.9217    4.7448 N   0  0  0  0  0  0  0  0  0  0  0  0
   31.9752  -18.8531    4.8945 N   0  0  0  0  0  0  0  0  0  0  0  0
   32.6012  -19.9211    4.1470 N   0  0  0  0  0  0  0  0  0  0  0  0
   32.2156  -19.8209    2.7731 N   0  0  0  0  0  0  0  0  0  0  0  0
   32.6657  -18.5611    2.2438 N   0  0  0  0  0  0  0  0  0  0  0  0
   34.0933  -18.4574    2.4011 N   0  0  0  0  0  0  0  0  0  0  0  0
   34.7143  -19.5196    1.6726 N   0  0  0  0  0  0  0  0  0  0  0  0
   34.3586  -19.4545    0.2734 N   0  0  0  0  0  0  0  0  0  0  0  0
   34.7847  -18.2013   -0.2489 N   0  0  0  0  0  0  0  0  0  0  0  0
   36.2010  -18.0716   -0.0886 N   0  0  0  0  0  0  0  0  0  0  0  0
   36.8473  -19.1411   -0.7992 N   0  0  0  0  0  0  0  0  0  0  0  0
   36.4799  -19.0877   -2.1767 N   0  0  0  0  0  0  0  0  0  0  0  0
   36.8995  -17.8345   -2.7440 N   0  0  0  0  0  0  0  0  0  0  0  0
   38.3014  -17.7022   -2.5909 N   0  0  0  0  0  0  0  0  0  0  0  0
   38.9649  -18.7757   -3.2530 N   0  0  0  0  0  0  0  0  0  0  0  0
   38.6409  -18.7365   -4.6606 N   0  0  0  0  0  0  0  0  0  0  0  0
   39.0193  -17.4748   -5.2313 N   0  0  0  0  0  0  0  0  0  0  0  0
   40.4324  -17.3006   -5.0976 N   0  0  0  0  0  0  0  0  0  0  0  0
   41.1079  -18.3881   -5.7542 N   0  0  0  0  0  0  0  0  0  0  0  0
   40.7422  -18.3794   -7.1330 N   0  0  0  0  0  0  0  0  0  0  0  0
   41.1206  -17.1370   -7.7279 N   0  0  0  0  0  0  0  0  0  0  0  0
   42.5338  -16.9304   -7.5813 N   0  0  0  0  0  0  0  0  0  0  0  0
   43.2262  -17.9934   -8.2416 N   0  0  0  0  0  0  0  0  0  0  0  0
   42.8640  -18.0361   -9.6234 N   0  0  0  0  0  0  0  0  0  0  0  0
   43.2293  -16.7941  -10.2244 N   0  0  0  0  0  0  0  0  0  0  0  0
   44.6414  -16.5588  -10.0972 N   0  0  0  0  0  0  0  0  0  0  0  0
   45.3500  -17.6352  -10.7180 N   0  0  0  0  0  0  0  0  0  0  0  0
   45.0069  -17.6792  -12.0964 N   0  0  0  0  0  0  0  0  0  0  0  0
   45.3452  -16.4471  -12.7387 N   0  0  0  0  0  0  0  0  0  0  0  0
   46.7322  -16.1889  -12.5720 N   0  0  0  0  0  0  0  0  0  0  0  0
   47.4731  -17.2550  -13.1942 N   0  0  0  0  0  0  0  0  0  0  0  0
   47.1312  -17.3323  -14.5881 N   0  0  0  0  0  0  0  0  0  0  0  0
   47.4442  -16.0971  -15.2545 N   0  0  0  0  0  0  0  0  0  0  0  0
   48.8262  -15.8433  -15.0863 N   0  0  0  0  0  0  0  0  0  0  0  0
   49.5904  -16.9030  -15.6903 N   0  0  0  0  0  0  0  0  0  0  0  0
   49.2581  -17.0030  -17.0761 N   0  0  0  0  0  0  0  0  0  0  0  0
   49.5498  -15.7797  -17.7387 N   0  0  0  0  0  0  0  0  0  0  0  0
   50.9518  -15.4784  -17.5919 N   0  0  0  0  0  0  0  0  0  0  0  0
   51.7191  -16.5371  -18.1711 N   0  0  0  0  0  0  0  0  0  0  0  0
   51.3997  -16.6836  -19.5580 N   0  0  0  0  0  0  0  0  0  0  0  0
   51.6844  -15.4655  -20.2425 N   0  0  0  0  0  0  0  0  0  0  0  0
   53.0641  -15.1343  -20.1114 N   0  0  0  0  0  0  0  0  0  0  0  0
   53.8738  -16.1928  -20.6487 N   0  0  0  0  0  0  0  0  0  0  0  0
   53.5328  -16.3521  -22.0308 N   0  0  0  0  0  0  0  0  0  0  0  0
   53.7959  -15.1123  -22.7302 N   0  0  0  0  0  0  0  0  0  0  0  0
   55.1872  -14.7632  -22.5766 N   0  0  0  0  0  0  0  0  0  0  0  0
   55.9910  -15.8082  -23.1263 N   0  0  0  0  0  0  0  0  0  0  0  0
   55.6784  -15.9960  -24.5068 N   0  0  0  0  0  0  0  0  0  0  0  0
   55.9049  -14.7913  -25.2286 N   0  0  0  0  0  0  0  0  0  0  0  0
   57.2783  -14.4065  -25.1097 N   0  0  0  0  0  0  0  0  0  0  0  0
   58.1061  -15.4422  -25.6156 N   0  0  0  0  0  0  0  0  0  0  0  0
   57.7992  -15.6670  -26.9945 N   0  0  0  0  0  0  0  0  0  0  0  0
   58.0093  -14.4616  -27.7313 N   0  0  0  0  0  0  0  0  0  0  0  0
   59.3685  -14.0601  -27.5962 N   0  0  0  0  0  0  0  0  0  0  0  0
   60.2402  -15.0768  -28.1055 N   0  0  0  0  0  0  0  0  0  0  0  0
   59.9155  -15.3233  -29.4799 N   0  0  0  0  0  0  0  0  0  0  0  0
   60.1214  -14.0778  -30.2215 C   0  0  0  0  0  0  0  0  0  0  0  0
   59.7934  -14.2961  -31.6847 C   0  0  0  0  0  0  0  0  0  0  0  0
   60.0060  -13.0138  -32.4717 C   0  0  0  0  0  0  0  0  0  0  0  0
   59.6806  -13.2367  -33.9359 C   0  0  0  0  0  0  0  0  0  0  0  0
   59.8938  -11.9573  -34.7190 C   0  0  0  0  0  0  0  0  0  0  0  0
   59.5666  -12.1808  -36.1805 C   0  0  0  0  0  0  0  0  0  0  0  0
   59.7812  -10.9027  -36.9654 C   0  0  0  0  0  0  0  0  0  0  0  0
   59.4539  -11.1295  -38.4225 C   0  0  0  0  0  0  0  0  0  0  0  0
   20.2935  -17.3222   15.2572 H   0  0  0  0  0  0  0  0  0  0  0  0
   20.4388  -19.1499   14.9287 H   0  0  0  0  0  0  0  0  0  0  0  0
   21.8583  -16.8601   13.4660 H   0  0  0  0  0  0  0  0  0  0  0  0
   21.9251  -18.8673   11.8322 H   0  0  0  0  0  0  0  0  0  0  0  0
   21.8195  -19.9648   13.2205 H   0  0  0  0  0  0  0  0  0  0  0  0
   23.9433  -19.1328   13.9738 H   0  0  0  0  0  0  0  0  0  0  0  0
   23.9202  -19.8976   11.2753 H   0  0  0  0  0  0  0  0  0  0  0  0
   25.8804  -20.1461   13.3664 H   0  0  0  0  0  0  0  0  0  0  0  0
   25.8522  -21.9963   11.8893 H   0  0  0  0  0  0  0  0  0  0  0  0
   24.8170  -20.9830   10.0885 H   0  0  0  0  0  0  0  0  0  0  0  0
   25.9544  -18.9051   10.2636 H   0  0  0  0  0  0  0  0  0  0  0  0
   27.9938  -19.7480   10.8575 H   0  0  0  0  0  0  0  0  0  0  0  0
   27.9737  -21.6090    9.4698 H   0  0  0  0  0  0  0  0  0  0  0  0
   26.9594  -20.5740    7.6058 H   0  0  0  0  0  0  0  0  0  0  0  0
   28.0097  -18.5383    7.7766 H   0  0  0  0  0  0  0  0  0  0  0  0
   30.1347  -19.3569    8.3464 H   0  0  0  0  0  0  0  0  0  0  0  0
   30.1141  -21.2020    7.0002 H   0  0  0  0  0  0  0  0  0  0  0  0
   29.0732  -20.2084    5.1580 H   0  0  0  0  0  0  0  0  0  0  0  0
   30.1043  -18.1711    5.2928 H   0  0  0  0  0  0  0  0  0  0  0  0
   32.2243  -18.9294    5.8903 H   0  0  0  0  0  0  0  0  0  0  0  0
   32.2796  -20.8223    4.5098 H   0  0  0  0  0  0  0  0  0  0  0  0
   31.1915  -19.8947    2.6876 H   0  0  0  0  0  0  0  0  0  0  0  0
   32.2560  -17.7879    2.7708 H   0  0  0  0  0  0  0  0  0  0  0  0
   34.3260  -18.5175    3.4043 H   0  0  0  0  0  0  0  0  0  0  0  0
   34.4172  -20.4301    2.0278 H   0  0  0  0  0  0  0  0  0  0  0  0
   33.3377  -19.5460    0.1949 H   0  0  0  0  0  0  0  0  0  0  0  0
   34.3508  -17.4294    0.2575 H   0  0  0  0  0  0  0  0  0  0  0  0
   36.4388  -18.1297    0.9085 H   0  0  0  0  0  0  0  0  0  0  0  0
   36.5416  -20.0458   -0.4316 H   0  0  0  0  0  0  0  0  0  0  0  0
   35.4675  -19.1906   -2.2843 H   0  0  0  0  0  0  0  0  0  0  0  0
   36.4354  -17.0674   -2.2505 H   0  0  0  0  0  0  0  0  0  0  0  0
   38.5695  -17.7480   -1.6095 H   0  0  0  0  0  0  0  0  0  0  0  0
   38.6598  -19.6727   -2.8467 H   0  0  0  0  0  0  0  0  0  0  0  0
   37.6291  -18.8278   -4.7653 H   0  0  0  0  0  0  0  0  0  0  0  0
   38.5078  -16.7365   -4.7259 H   0  0  0  0  0  0  0  0  0  0  0  0
   40.6797  -17.3313   -4.1051 H   0  0  0  0  0  0  0  0  0  0  0  0
   40.7918  -19.2613   -5.3189 H   0  0  0  0  0  0  0  0  0  0  0  0
   39.7295  -18.4804   -7.2272 H   0  0  0  0  0  0  0  0  0  0  0  0
   40.6444  -16.3733   -7.2533 H   0  0  0  0  0  0  0  0  0  0  0  0
   42.7591  -16.9197   -6.5770 H   0  0  0  0  0  0  0  0  0  0  0  0
   42.9530  -18.8850   -7.8355 H   0  0  0  0  0  0  0  0  0  0  0  0
   41.8475  -18.1625   -9.6954 H   0  0  0  0  0  0  0  0  0  0  0  0
   42.7186  -16.0390   -9.7656 H   0  0  0  0  0  0  0  0  0  0  0  0
   44.8894  -16.5645   -9.1070 H   0  0  0  0  0  0  0  0  0  0  0  0
   45.0860  -18.5137  -10.2576 H   0  0  0  0  0  0  0  0  0  0  0  0
   44.0038  -17.8277  -12.2065 H   0  0  0  0  0  0  0  0  0  0  0  0
   44.8289  -15.7028  -12.2774 H   0  0  0  0  0  0  0  0  0  0  0  0
   46.9422  -16.1633  -11.5699 H   0  0  0  0  0  0  0  0  0  0  0  0
   47.2204  -18.1412  -12.7412 H   0  0  0  0  0  0  0  0  0  0  0  0
   46.1280  -17.4983  -14.6879 H   0  0  0  0  0  0  0  0  0  0  0  0
   46.9177  -15.3490  -14.8001 H   0  0  0  0  0  0  0  0  0  0  0  0
   49.0450  -15.7769  -14.0867 H   0  0  0  0  0  0  0  0  0  0  0  0
   49.3349  -17.7863  -15.2415 H   0  0  0  0  0  0  0  0  0  0  0  0
   48.2615  -17.1881  -17.1738 H   0  0  0  0  0  0  0  0  0  0  0  0
   49.0242  -15.0251  -17.3010 H   0  0  0  0  0  0  0  0  0  0  0  0
   51.1402  -15.4085  -16.5838 H   0  0  0  0  0  0  0  0  0  0  0  0
   51.4872  -17.4152  -17.7098 H   0  0  0  0  0  0  0  0  0  0  0  0
   50.4015  -16.8790  -19.6520 H   0  0  0  0  0  0  0  0  0  0  0  0
   51.1283  -14.7193  -19.8266 H   0  0  0  0  0  0  0  0  0  0  0  0
   53.2834  -15.0549  -19.1221 H   0  0  0  0  0  0  0  0  0  0  0  0
   53.6290  -17.0463  -20.1314 H   0  0  0  0  0  0  0  0  0  0  0  0
   52.5282  -16.5735  -22.0839 H   0  0  0  0  0  0  0  0  0  0  0  0
   53.2052  -14.3857  -22.2965 H   0  0  0  0  0  0  0  0  0  0  0  0
   55.3829  -14.6541  -21.5711 H   0  0  0  0  0  0  0  0  0  0  0  0
   55.8029  -16.6825  -22.6328 H   0  0  0  0  0  0  0  0  0  0  0  0
   54.6941  -16.2357  -24.6107 H   0  0  0  0  0  0  0  0  0  0  0  0
   55.3279  -14.0517  -24.8264 H   0  0  0  0  0  0  0  0  0  0  0  0
   57.4815  -14.2964  -24.1175 H   0  0  0  0  0  0  0  0  0  0  0  0
   57.9145  -16.3000  -25.1003 H   0  0  0  0  0  0  0  0  0  0  0  0
   56.8133  -15.9134  -27.0543 H   0  0  0  0  0  0  0  0  0  0  0  0
   57.4145  -13.7410  -27.3179 H   0  0  0  0  0  0  0  0  0  0  0  0
   59.5663  -13.9209  -26.6062 H   0  0  0  0  0  0  0  0  0  0  0  0
   60.0483  -15.9234  -27.5636 H   0  0  0  0  0  0  0  0  0  0  0  0
   58.9316  -15.5900  -29.5301 H   0  0  0  0  0  0  0  0  0  0  0  0
   61.1632  -13.7503  -30.1311 H   0  0  0  0  0  0  0  0  0  0  0  0
   59.4785  -13.2721  -29.8442 H   0  0  0  0  0  0  0  0  0  0  0  0
   58.7505  -14.6137  -31.7909 H   0  0  0  0  0  0  0  0  0  0  0  0
   60.4361  -15.0810  -32.0946 H   0  0  0  0  0  0  0  0  0  0  0  0
   61.0474  -12.6887  -32.3751 H   0  0  0  0  0  0  0  0  0  0  0  0
   59.3630  -12.2224  -32.0717 H   0  0  0  0  0  0  0  0  0  0  0  0
   58.6389  -13.5593  -34.0364 H   0  0  0  0  0  0  0  0  0  0  0  0
   60.3236  -14.0258  -34.3398 H   0  0  0  0  0  0  0  0  0  0  0  0
   60.9358  -11.6350  -34.6211 H   0  0  0  0  0  0  0  0  0  0  0  0
   59.2516  -11.1673  -34.3156 H   0  0  0  0  0  0  0  0  0  0  0  0
   58.5242  -12.5025  -36.2792 H   0  0  0  0  0  0  0  0  0  0  0  0
   60.2072  -12.9724  -36.5842 H   0  0  0  0  0  0  0  0  0  0  0  0
   60.8232  -10.5815  -36.8708 H   0  0  0  0  0  0  0  0  0  0  0  0
   59.1395  -10.1114  -36.5657 H   0  0  0  0  0  0  0  0  0  0  0  0
   60.0974  -11.9115  -38.8371 H   0  0  0  0  0  0  0  0  0  0  0  0
   59.6078  -10.2098  -38.9908 H   0  0  0  0  0  0  0  0  0  0  0  0
   58.4104  -11.4405  -38.5314 H   0  0  0  0  0  0  0  0  0  0  0  0
  1  2  2  0  0  0  0
  1 81  1  0  0  0  0
  1 82  1  0  0  0  0
  2  3  1  0  0  0  0
  2 83  1  0  0  0  0
  3  4  1  0  0  0  0
  3 84  1  0  0  0  0
  3 85  1  0  0  0  0
  4  5  1  0  0  0  0
  4 86  1  0  0  0  0
  5  6  1  0  0  0  0
  5 87  1  0  0  0  0
  6  7  1  0  0  0  0
  6 88  1  0  0  0  0
  7  8  1  0  0  0  0
  7 89  1  0  0  0  0
  8  9  1  0  0  0  0
  8 90  1  0  0  0  0
  9 10  1  0  0  0  0
  9 91  1  0  0  0  0
 10 11  1  0  0  0  0
 10 92  1  0  0  0  0
 11 12  1  0  0  0  0
 11 93  1  0  0  0  0
 12 13  1  0  0  0  0
 12 94  1  0  0  0  0
 13 14  1  0  0  0  0
 13 95  1  0  0  0  0
 14 15  1  0  0  0  0
 14 96  1  0  0  0  0
 15 16  1  0  0  0  0
 15 97  1  0  0  0  0
 16 17  1  0  0  0  0
 16 98  1  0  0  0  0
 17 18  1  0  0  0  0
 17 99  1  0  0  0  0
 18 19  1  0  0  0  0
 18100  1  0  0  0  0
 19 20  1  0  0  0  0
 19101  1  0  0  0  0
 20 21  1  0  0  0  0
 20102  1  0  0  0  0
 21 22  1  0  0  0  0
 21103  1  0  0  0  0
 22 23  1  0  0  0  0
 22104  1  0  0  0  0
 23 24  1  0  0  0  0
 23105  1  0  0  0  0
 24 25  1  0  0  0  0
 24106  1  0  0  0  0
 25 26  1  0  0  0  0
 25107  1  0  0  0  0
 26 27  1  0  0  0  0
 26108  1  0  0  0  0
 27 28  1  0  0  0  0
 27109  1  0  0  0  0
 28 29  1  0  0  0  0
 28110  1  0  0  0  0
 29 30  1  0  0  0  0
 29111  1  0  0  0  0
 30 31  1  0  0  0  0
 30112  1  0  0  0  0
 31 32  1  0  0  0  0
 31113  1  0  0  0  0
 32 33  1  0  0  0  0
 32114  1  0  0  0  0
 33 34  1  0  0  0  0
 33115  1  0  0  0  0
 34 35  1  0  0  0  0
 34116  1  0  0  0  0
 35 36  1  0  0  0  0
 35117  1  0  0  0  0
 36 37  1  0  0  0  0
 36118  1  0  0  0  0
 37 38  1  0  0  0  0
 37119  1  0  0  0  0
 38 39  1  0  0  0  0
 38120  1  0  0  0  0
 39 40  1  0  0  0  0
 39121  1  0  0  0  0
 40 41  1  0  0  0  0
 40122  1  0  0  0  0
 41 42  1  0  0  0  0
 41123  1  0  0  0  0
 42 43  1  0  0  0  0
 42124  1  0  0  0  0
 43 44  1  0  0  0  0
 43125  1  0  0  0  0
 44 45  1  0  0  0  0
 44126  1  0  0  0  0
 45 46  1  0  0  0  0
 45127  1  0  0  0  0
 46 47  1  0  0  0  0
 46128  1  0  0  0  0
 47 48  1  0  0  0  0
 47129  1  0  0  0  0
 48 49  1  0  0  0  0
 48130  1  0  0  0  0
 49 50  1  0  0  0  0
 49131  1  0  0  0  0
 50 51  1  0  0  0  0
 50132  1  0  0  0  0
 51 52  1  0  0  0  0
 51133  1  0  0  0  0
 52 53  1  0  0  0  0
 52134  1  0  0  0  0
 53 54  1  0  0  0  0
 53135  1  0  0  0  0
 54 55  1  0  0  0  0
 54136  1  0  0  0  0
 55 56  1  0  0  0  0
 55137  1  0  0  0  0
 56 57  1  0  0  0  0
 56138  1  0  0  0  0
 57 58  1  0  0  0  0
 57139  1  0  0  0  0
 58 59  1  0  0  0  0
 58140  1  0  0  0  0
 59 60  1  0  0  0  0
 59141  1  0  0  0  0
 60 61  1  0  0  0  0
 60142  1  0  0  0  0
 61 62  1  0  0  0  0
 61143  1  0  0  0  0
 62 63  1  0  0  0  0
 62144  1  0  0  0  0
 63 64  1  0  0  0  0
 63145  1  0  0  0  0
 64 65  1  0  0  0  0
 64146  1  0  0  0  0
 65 66  1  0  0  0  0
 65147  1  0  0  0  0
 66 67  1  0  0  0  0
 66148  1  0  0  0  0
 67 68  1  0  0  0  0
 67149  1  0  0  0  0
 68 69  1  0  0  0  0
 68150  1  0  0  0  0
 69 70  1  0  0  0  0
 69151  1  0  0  0  0
 70 71  1  0  0  0  0
 70152  1  0  0  0  0
 71 72  1  0  0  0  0
 71153  1  0  0  0  0
 72 73  1  0  0  0  0
 72154  1  0  0  0  0
 73 74  1  0  0  0  0
 73155  1  0  0  0  0
 73156  1  0  0  0  0
 74 75  1  0  0  0  0
 74157  1  0  0  0  0
 74158  1  0  0  0  0
 75 76  1  0  0  0  0
 75159  1  0  0  0  0
 75160  1  0  0  0  0
 76 77  1  0  0  0  0
 76161  1  0  0  0  0
 76162  1  0  0  0  0
 77 78  1  0  0  0  0
 77163  1  0  0  0  0
 77164  1  0  0  0  0
 78 79  1  0  0  0  0
 78165  1  0  0  0  0
 78166  1  0  0  0  0
 79 80  1  0  0  0  0
 79167  1  0  0  0  0
 79168  1  0  0  0  0
 80169  1  0  0  0  0
 80170  1  0  0  0  0
 80171  1  0  0  0  0
M  END
$$$$
