
 OpenBabel04232216413D

213212  0  0  0  0  0  0  0  0999 V2000
    1.5655   -0.2853    0.8429 C   0  0  0  0  0  0  0  0  0  0  0  0
    2.4329    0.0250   -0.1318 C   0  0  0  0  0  0  0  0  0  0  0  0
    3.2121   -1.0147   -0.8758 C   0  0  0  0  0  0  0  0  0  0  0  0
    4.6493   -0.7990   -0.7114 N   0  0  0  0  0  0  0  0  0  0  0  0
    5.3419   -1.8062   -1.4298 N   0  0  0  0  0  0  0  0  0  0  0  0
    6.7479   -1.6127   -1.2797 N   0  0  0  0  0  0  0  0  0  0  0  0
    7.4615   -2.6042   -1.9859 N   0  0  0  0  0  0  0  0  0  0  0  0
    8.8503   -2.3974   -1.8294 N   0  0  0  0  0  0  0  0  0  0  0  0
    9.5635   -3.3935   -2.5372 N   0  0  0  0  0  0  0  0  0  0  0  0
   10.9712   -3.2061   -2.3931 N   0  0  0  0  0  0  0  0  0  0  0  0
   11.6755   -4.2010   -3.0999 N   0  0  0  0  0  0  0  0  0  0  0  0
   13.0651   -3.9928   -2.9422 N   0  0  0  0  0  0  0  0  0  0  0  0
   13.7887   -4.9847   -3.6470 N   0  0  0  0  0  0  0  0  0  0  0  0
   15.1777   -4.7843   -3.4984 N   0  0  0  0  0  0  0  0  0  0  0  0
   15.8722   -5.7767   -4.2047 N   0  0  0  0  0  0  0  0  0  0  0  0
   17.2749   -5.5824   -4.0621 N   0  0  0  0  0  0  0  0  0  0  0  0
   17.9894   -6.5772   -4.7672 N   0  0  0  0  0  0  0  0  0  0  0  0
   19.3790   -6.3736   -4.6201 N   0  0  0  0  0  0  0  0  0  0  0  0
   20.0898   -7.3695   -5.3249 N   0  0  0  0  0  0  0  0  0  0  0  0
   21.4751   -7.1602   -5.1702 N   0  0  0  0  0  0  0  0  0  0  0  0
   22.1948   -8.1585   -5.8785 N   0  0  0  0  0  0  0  0  0  0  0  0
   23.5937   -7.9603   -5.7369 N   0  0  0  0  0  0  0  0  0  0  0  0
   24.3107   -8.9554   -6.4441 N   0  0  0  0  0  0  0  0  0  0  0  0
   25.6978   -8.7487   -6.2973 N   0  0  0  0  0  0  0  0  0  0  0  0
   26.4105   -9.7433   -7.0049 N   0  0  0  0  0  0  0  0  0  0  0  0
   27.7987   -9.5371   -6.8603 N   0  0  0  0  0  0  0  0  0  0  0  0
   28.5134  -10.5341   -7.5702 N   0  0  0  0  0  0  0  0  0  0  0  0
   29.9085  -10.3296   -7.4272 N   0  0  0  0  0  0  0  0  0  0  0  0
   30.6307  -11.3247   -8.1352 N   0  0  0  0  0  0  0  0  0  0  0  0
   32.0336  -11.1054   -7.9820 N   0  0  0  0  0  0  0  0  0  0  0  0
   32.7417  -12.1427   -8.7199 C   0  0  0  0  0  0  0  0  0  0  0  0
   34.2390  -11.9235   -8.5663 C   0  0  0  0  0  0  0  0  0  0  0  0
   35.0084  -12.9917   -9.3243 C   0  0  0  0  0  0  0  0  0  0  0  0
   36.5010  -12.7724   -9.1706 C   0  0  0  0  0  0  0  0  0  0  0  0
   37.2658  -13.8395   -9.9278 C   0  0  0  0  0  0  0  0  0  0  0  0
   38.7567  -13.6190   -9.7733 C   0  0  0  0  0  0  0  0  0  0  0  0
   39.5207  -14.6847  -10.5319 C   0  0  0  0  0  0  0  0  0  0  0  0
   41.0113  -14.4652  -10.3756 C   0  0  0  0  0  0  0  0  0  0  0  0
   41.7751  -15.5321  -11.1325 C   0  0  0  0  0  0  0  0  0  0  0  0
   43.2657  -15.3137  -10.9746 C   0  0  0  0  0  0  0  0  0  0  0  0
   44.0295  -16.3794  -11.7332 C   0  0  0  0  0  0  0  0  0  0  0  0
   45.5201  -16.1598  -11.5769 C   0  0  0  0  0  0  0  0  0  0  0  0
   46.2840  -17.2255  -12.3355 C   0  0  0  0  0  0  0  0  0  0  0  0
   47.7745  -17.0060  -12.1792 C   0  0  0  0  0  0  0  0  0  0  0  0
   48.5384  -18.0716  -12.9378 C   0  0  0  0  0  0  0  0  0  0  0  0
   50.0289  -17.8521  -12.7815 C   0  0  0  0  0  0  0  0  0  0  0  0
   50.7928  -18.9178  -13.5401 C   0  0  0  0  0  0  0  0  0  0  0  0
   52.2834  -18.6994  -13.3822 C   0  0  0  0  0  0  0  0  0  0  0  0
   53.0472  -19.7639  -14.1424 C   0  0  0  0  0  0  0  0  0  0  0  0
   54.5378  -19.5444  -13.9861 C   0  0  0  0  0  0  0  0  0  0  0  0
   55.3016  -20.6089  -14.7463 C   0  0  0  0  0  0  0  0  0  0  0  0
   56.7922  -20.3905  -14.5884 C   0  0  0  0  0  0  0  0  0  0  0  0
   57.5560  -21.4538  -15.3502 C   0  0  0  0  0  0  0  0  0  0  0  0
   59.0466  -21.2366  -15.1907 C   0  0  0  0  0  0  0  0  0  0  0  0
   59.8104  -22.2988  -15.9542 C   0  0  0  0  0  0  0  0  0  0  0  0
   61.3010  -22.0804  -15.7963 C   0  0  0  0  0  0  0  0  0  0  0  0
   62.0648  -23.1414  -16.5613 C   0  0  0  0  0  0  0  0  0  0  0  0
   63.5554  -22.9230  -16.4034 C   0  0  0  0  0  0  0  0  0  0  0  0
   64.3192  -23.9852  -17.1669 C   0  0  0  0  0  0  0  0  0  0  0  0
   65.8098  -23.7668  -17.0090 C   0  0  0  0  0  0  0  0  0  0  0  0
   66.5736  -24.8289  -17.7725 C   0  0  0  0  0  0  0  0  0  0  0  0
   68.0642  -24.6106  -17.6146 C   0  0  0  0  0  0  0  0  0  0  0  0
   68.8281  -25.6727  -18.3780 C   0  0  0  0  0  0  0  0  0  0  0  0
   70.3186  -25.4544  -18.2201 C   0  0  0  0  0  0  0  0  0  0  0  0
   71.0825  -26.5165  -18.9836 C   0  0  0  0  0  0  0  0  0  0  0  0
   72.5731  -26.2981  -18.8257 C   0  0  0  0  0  0  0  0  0  0  0  0
   73.3369  -27.3603  -19.5892 C   0  0  0  0  0  0  0  0  0  0  0  0
   74.8275  -27.1419  -19.4312 C   0  0  0  0  0  0  0  0  0  0  0  0
   75.5913  -28.2053  -20.1931 C   0  0  0  0  0  0  0  0  0  0  0  0
   77.0819  -27.9869  -20.0352 C   0  0  0  0  0  0  0  0  0  0  0  0
   77.8457  -29.0502  -20.7970 C   0  0  0  0  0  0  0  0  0  0  0  0
   79.3363  -28.8318  -20.6391 C   0  0  0  0  0  0  0  0  0  0  0  0
   80.1001  -29.8952  -21.4009 C   0  0  0  0  0  0  0  0  0  0  0  0
   81.5907  -29.6768  -21.2430 C   0  0  0  0  0  0  0  0  0  0  0  0
   82.3545  -30.7413  -22.0032 C   0  0  0  0  0  0  0  0  0  0  0  0
   83.8451  -30.5230  -21.8454 C   0  0  0  0  0  0  0  0  0  0  0  0
   84.6088  -31.5877  -22.6057 C   0  0  0  0  0  0  0  0  0  0  0  0
   86.0997  -31.3713  -22.4467 C   0  0  0  0  0  0  0  0  0  0  0  0
   86.8669  -32.4372  -23.2055 C   0  0  0  0  0  0  0  0  0  0  0  0
   88.3534  -32.2173  -23.0440 C   0  0  0  0  0  0  0  0  0  0  0  0
    1.0157    0.4843    1.3667 H   0  0  0  0  0  0  0  0  0  0  0  0
    1.4091   -1.3198    1.1259 H   0  0  0  0  0  0  0  0  0  0  0  0
    2.5481    1.0798   -0.3796 H   0  0  0  0  0  0  0  0  0  0  0  0
    2.9448   -0.9543   -1.9392 H   0  0  0  0  0  0  0  0  0  0  0  0
    2.9247   -2.0078   -0.5045 H   0  0  0  0  0  0  0  0  0  0  0  0
    4.8940   -0.8938    0.2719 H   0  0  0  0  0  0  0  0  0  0  0  0
    5.1098   -1.7419   -2.4196 H   0  0  0  0  0  0  0  0  0  0  0  0
    6.9877   -1.6573   -0.2908 H   0  0  0  0  0  0  0  0  0  0  0  0
    7.2347   -2.5516   -2.9758 H   0  0  0  0  0  0  0  0  0  0  0  0
    9.0470   -2.4369   -0.8293 H   0  0  0  0  0  0  0  0  0  0  0  0
    9.3315   -3.3374   -3.5317 H   0  0  0  0  0  0  0  0  0  0  0  0
   11.2315   -3.2647   -1.4116 H   0  0  0  0  0  0  0  0  0  0  0  0
   11.4295   -4.1487   -4.0856 H   0  0  0  0  0  0  0  0  0  0  0  0
   13.2605   -4.0279   -1.9397 H   0  0  0  0  0  0  0  0  0  0  0  0
   13.5604   -4.9416   -4.6415 H   0  0  0  0  0  0  0  0  0  0  0  0
   15.4489   -4.8554   -2.5191 H   0  0  0  0  0  0  0  0  0  0  0  0
   15.6469   -5.7262   -5.1948 H   0  0  0  0  0  0  0  0  0  0  0  0
   17.5366   -5.6473   -3.0816 H   0  0  0  0  0  0  0  0  0  0  0  0
   17.7576   -6.5216   -5.7563 H   0  0  0  0  0  0  0  0  0  0  0  0
   19.6392   -6.4233   -3.6383 H   0  0  0  0  0  0  0  0  0  0  0  0
   19.8456   -7.3258   -6.3116 H   0  0  0  0  0  0  0  0  0  0  0  0
   21.6700   -7.1720   -4.1678 H   0  0  0  0  0  0  0  0  0  0  0  0
   21.9259   -8.1061   -6.8674 H   0  0  0  0  0  0  0  0  0  0  0  0
   23.8515   -8.0201   -4.7506 H   0  0  0  0  0  0  0  0  0  0  0  0
   24.0933   -8.9034   -7.4370 H   0  0  0  0  0  0  0  0  0  0  0  0
   25.9529   -8.8084   -5.3151 H   0  0  0  0  0  0  0  0  0  0  0  0
   26.1654   -9.6930   -7.9928 H   0  0  0  0  0  0  0  0  0  0  0  0
   28.0516   -9.5830   -5.8747 H   0  0  0  0  0  0  0  0  0  0  0  0
   28.2731  -10.4826   -8.5588 H   0  0  0  0  0  0  0  0  0  0  0  0
   30.1433  -10.3773   -6.4385 H   0  0  0  0  0  0  0  0  0  0  0  0
   30.3769  -11.2598   -9.1203 H   0  0  0  0  0  0  0  0  0  0  0  0
   32.2601  -11.1707   -6.9904 H   0  0  0  0  0  0  0  0  0  0  0  0
   32.4851  -12.0984   -9.7851 H   0  0  0  0  0  0  0  0  0  0  0  0
   32.4844  -13.1389   -8.3410 H   0  0  0  0  0  0  0  0  0  0  0  0
   34.5170  -11.9615   -7.5063 H   0  0  0  0  0  0  0  0  0  0  0  0
   34.5152  -10.9353   -8.9534 H   0  0  0  0  0  0  0  0  0  0  0  0
   34.7406  -12.9582  -10.3866 H   0  0  0  0  0  0  0  0  0  0  0  0
   34.7423  -13.9830   -8.9399 H   0  0  0  0  0  0  0  0  0  0  0  0
   36.7726  -12.8079   -8.1095 H   0  0  0  0  0  0  0  0  0  0  0  0
   36.7709  -11.7827   -9.5562 H   0  0  0  0  0  0  0  0  0  0  0  0
   36.9958  -13.8047  -10.9894 H   0  0  0  0  0  0  0  0  0  0  0  0
   36.9975  -14.8299   -9.5427 H   0  0  0  0  0  0  0  0  0  0  0  0
   39.0276  -13.6556   -8.7119 H   0  0  0  0  0  0  0  0  0  0  0  0
   39.0254  -12.6283  -10.1572 H   0  0  0  0  0  0  0  0  0  0  0  0
   39.2511  -14.6474  -11.5935 H   0  0  0  0  0  0  0  0  0  0  0  0
   39.2511  -15.6756  -10.1489 H   0  0  0  0  0  0  0  0  0  0  0  0
   41.2807  -14.5012   -9.3139 H   0  0  0  0  0  0  0  0  0  0  0  0
   41.2811  -13.4749  -10.7599 H   0  0  0  0  0  0  0  0  0  0  0  0
   41.5068  -15.4951  -12.1945 H   0  0  0  0  0  0  0  0  0  0  0  0
   41.5042  -16.5225  -10.7493 H   0  0  0  0  0  0  0  0  0  0  0  0
   43.5342  -15.3521   -9.9127 H   0  0  0  0  0  0  0  0  0  0  0  0
   43.5364  -14.3227  -11.3566 H   0  0  0  0  0  0  0  0  0  0  0  0
   43.7600  -16.3420  -12.7949 H   0  0  0  0  0  0  0  0  0  0  0  0
   43.7599  -17.3703  -11.3503 H   0  0  0  0  0  0  0  0  0  0  0  0
   45.7897  -16.1972  -10.5153 H   0  0  0  0  0  0  0  0  0  0  0  0
   45.7897  -15.1690  -11.9599 H   0  0  0  0  0  0  0  0  0  0  0  0
   46.0144  -17.1881  -13.3971 H   0  0  0  0  0  0  0  0  0  0  0  0
   46.0144  -18.2164  -11.9525 H   0  0  0  0  0  0  0  0  0  0  0  0
   48.0441  -17.0434  -11.1176 H   0  0  0  0  0  0  0  0  0  0  0  0
   48.0441  -16.0151  -12.5622 H   0  0  0  0  0  0  0  0  0  0  0  0
   48.2688  -18.0342  -13.9994 H   0  0  0  0  0  0  0  0  0  0  0  0
   48.2688  -19.0625  -12.5548 H   0  0  0  0  0  0  0  0  0  0  0  0
   50.2985  -17.8895  -11.7199 H   0  0  0  0  0  0  0  0  0  0  0  0
   50.2985  -16.8612  -13.1645 H   0  0  0  0  0  0  0  0  0  0  0  0
   50.5242  -18.8794  -14.6020 H   0  0  0  0  0  0  0  0  0  0  0  0
   50.5221  -19.9087  -13.1581 H   0  0  0  0  0  0  0  0  0  0  0  0
   52.5521  -18.7392  -12.3204 H   0  0  0  0  0  0  0  0  0  0  0  0
   52.5538  -17.7079  -13.7628 H   0  0  0  0  0  0  0  0  0  0  0  0
   52.7774  -19.7250  -15.2039 H   0  0  0  0  0  0  0  0  0  0  0  0
   52.7778  -20.7554  -13.7608 H   0  0  0  0  0  0  0  0  0  0  0  0
   54.8076  -19.5832  -12.9246 H   0  0  0  0  0  0  0  0  0  0  0  0
   54.8071  -18.5529  -14.3677 H   0  0  0  0  0  0  0  0  0  0  0  0
   55.0328  -20.5691  -15.8081 H   0  0  0  0  0  0  0  0  0  0  0  0
   55.0311  -21.6004  -14.3657 H   0  0  0  0  0  0  0  0  0  0  0  0
   57.0611  -20.4317  -13.5267 H   0  0  0  0  0  0  0  0  0  0  0  0
   57.0624  -19.3984  -14.9677 H   0  0  0  0  0  0  0  0  0  0  0  0
   57.2881  -21.4116  -16.4121 H   0  0  0  0  0  0  0  0  0  0  0  0
   57.2847  -22.4460  -14.9719 H   0  0  0  0  0  0  0  0  0  0  0  0
   59.3147  -21.2802  -14.1289 H   0  0  0  0  0  0  0  0  0  0  0  0
   59.3177  -20.2439  -15.5677 H   0  0  0  0  0  0  0  0  0  0  0  0
   59.5412  -22.2561  -17.0157 H   0  0  0  0  0  0  0  0  0  0  0  0
   59.5404  -23.2914  -15.5762 H   0  0  0  0  0  0  0  0  0  0  0  0
   61.5704  -22.1245  -14.7348 H   0  0  0  0  0  0  0  0  0  0  0  0
   61.5708  -21.0872  -16.1729 H   0  0  0  0  0  0  0  0  0  0  0  0
   61.7954  -23.0973  -17.6228 H   0  0  0  0  0  0  0  0  0  0  0  0
   61.7950  -24.1346  -16.1847 H   0  0  0  0  0  0  0  0  0  0  0  0
   63.8246  -22.9657  -15.3419 H   0  0  0  0  0  0  0  0  0  0  0  0
   63.8254  -21.9303  -16.7814 H   0  0  0  0  0  0  0  0  0  0  0  0
   64.0501  -23.9425  -18.2285 H   0  0  0  0  0  0  0  0  0  0  0  0
   64.0492  -24.9778  -16.7889 H   0  0  0  0  0  0  0  0  0  0  0  0
   66.0790  -23.8095  -15.9474 H   0  0  0  0  0  0  0  0  0  0  0  0
   66.0798  -22.7741  -17.3870 H   0  0  0  0  0  0  0  0  0  0  0  0
   66.3045  -24.7863  -18.8340 H   0  0  0  0  0  0  0  0  0  0  0  0
   66.3036  -25.8216  -17.3945 H   0  0  0  0  0  0  0  0  0  0  0  0
   68.3334  -24.6533  -16.5530 H   0  0  0  0  0  0  0  0  0  0  0  0
   68.3342  -23.6179  -17.9926 H   0  0  0  0  0  0  0  0  0  0  0  0
   68.5589  -25.6301  -19.4396 H   0  0  0  0  0  0  0  0  0  0  0  0
   68.5581  -26.6654  -18.0000 H   0  0  0  0  0  0  0  0  0  0  0  0
   70.5878  -25.4970  -17.1586 H   0  0  0  0  0  0  0  0  0  0  0  0
   70.5886  -24.4617  -18.5981 H   0  0  0  0  0  0  0  0  0  0  0  0
   70.8133  -26.4738  -20.0451 H   0  0  0  0  0  0  0  0  0  0  0  0
   70.8125  -27.5092  -18.6056 H   0  0  0  0  0  0  0  0  0  0  0  0
   72.8422  -26.3408  -17.7641 H   0  0  0  0  0  0  0  0  0  0  0  0
   72.8431  -25.3055  -19.2037 H   0  0  0  0  0  0  0  0  0  0  0  0
   73.0677  -27.3176  -20.6507 H   0  0  0  0  0  0  0  0  0  0  0  0
   73.0669  -28.3530  -19.2112 H   0  0  0  0  0  0  0  0  0  0  0  0
   75.0964  -27.1832  -18.3696 H   0  0  0  0  0  0  0  0  0  0  0  0
   75.0977  -26.1498  -19.8106 H   0  0  0  0  0  0  0  0  0  0  0  0
   75.3223  -28.1640  -21.2547 H   0  0  0  0  0  0  0  0  0  0  0  0
   75.3211  -29.1974  -19.8138 H   0  0  0  0  0  0  0  0  0  0  0  0
   77.3508  -28.0281  -18.9735 H   0  0  0  0  0  0  0  0  0  0  0  0
   77.3521  -26.9948  -20.4145 H   0  0  0  0  0  0  0  0  0  0  0  0
   77.5768  -29.0090  -21.8587 H   0  0  0  0  0  0  0  0  0  0  0  0
   77.5755  -30.0423  -20.4177 H   0  0  0  0  0  0  0  0  0  0  0  0
   79.6052  -28.8731  -19.5774 H   0  0  0  0  0  0  0  0  0  0  0  0
   79.6065  -27.8397  -21.0184 H   0  0  0  0  0  0  0  0  0  0  0  0
   79.8312  -29.8539  -22.4626 H   0  0  0  0  0  0  0  0  0  0  0  0
   79.8299  -30.8873  -21.0216 H   0  0  0  0  0  0  0  0  0  0  0  0
   81.8594  -29.7166  -20.1812 H   0  0  0  0  0  0  0  0  0  0  0  0
   81.8611  -28.6853  -21.6237 H   0  0  0  0  0  0  0  0  0  0  0  0
   82.0858  -30.7015  -23.0650 H   0  0  0  0  0  0  0  0  0  0  0  0
   82.0841  -31.7328  -21.6226 H   0  0  0  0  0  0  0  0  0  0  0  0
   84.1138  -30.5627  -20.7836 H   0  0  0  0  0  0  0  0  0  0  0  0
   84.1156  -29.5314  -22.2260 H   0  0  0  0  0  0  0  0  0  0  0  0
   84.3412  -31.5467  -23.6676 H   0  0  0  0  0  0  0  0  0  0  0  0
   84.3373  -32.5791  -22.2259 H   0  0  0  0  0  0  0  0  0  0  0  0
   86.3667  -31.4097  -21.3842 H   0  0  0  0  0  0  0  0  0  0  0  0
   86.3710  -30.3796  -22.8270 H   0  0  0  0  0  0  0  0  0  0  0  0
   86.6028  -32.3979  -24.2677 H   0  0  0  0  0  0  0  0  0  0  0  0
   86.5985  -33.4284  -22.8244 H   0  0  0  0  0  0  0  0  0  0  0  0
   88.6360  -31.2345  -23.4337 H   0  0  0  0  0  0  0  0  0  0  0  0
   88.9078  -32.9837  -23.5895 H   0  0  0  0  0  0  0  0  0  0  0  0
   88.6316  -32.2676  -21.9868 H   0  0  0  0  0  0  0  0  0  0  0  0
  1  2  2  0  0  0  0
  1 81  1  0  0  0  0
  1 82  1  0  0  0  0
  2  3  1  0  0  0  0
  2 83  1  0  0  0  0
  3  4  1  0  0  0  0
  3 84  1  0  0  0  0
  3 85  1  0  0  0  0
  4  5  1  0  0  0  0
  4 86  1  0  0  0  0
  5  6  1  0  0  0  0
  5 87  1  0  0  0  0
  6  7  1  0  0  0  0
  6 88  1  0  0  0  0
  7  8  1  0  0  0  0
  7 89  1  0  0  0  0
  8  9  1  0  0  0  0
  8 90  1  0  0  0  0
  9 10  1  0  0  0  0
  9 91  1  0  0  0  0
 10 11  1  0  0  0  0
 10 92  1  0  0  0  0
 11 12  1  0  0  0  0
 11 93  1  0  0  0  0
 12 13  1  0  0  0  0
 12 94  1  0  0  0  0
 13 14  1  0  0  0  0
 13 95  1  0  0  0  0
 14 15  1  0  0  0  0
 14 96  1  0  0  0  0
 15 16  1  0  0  0  0
 15 97  1  0  0  0  0
 16 17  1  0  0  0  0
 16 98  1  0  0  0  0
 17 18  1  0  0  0  0
 17 99  1  0  0  0  0
 18 19  1  0  0  0  0
 18100  1  0  0  0  0
 19 20  1  0  0  0  0
 19101  1  0  0  0  0
 20 21  1  0  0  0  0
 20102  1  0  0  0  0
 21 22  1  0  0  0  0
 21103  1  0  0  0  0
 22 23  1  0  0  0  0
 22104  1  0  0  0  0
 23 24  1  0  0  0  0
 23105  1  0  0  0  0
 24 25  1  0  0  0  0
 24106  1  0  0  0  0
 25 26  1  0  0  0  0
 25107  1  0  0  0  0
 26 27  1  0  0  0  0
 26108  1  0  0  0  0
 27 28  1  0  0  0  0
 27109  1  0  0  0  0
 28 29  1  0  0  0  0
 28110  1  0  0  0  0
 29 30  1  0  0  0  0
 29111  1  0  0  0  0
 30 31  1  0  0  0  0
 30112  1  0  0  0  0
 31 32  1  0  0  0  0
 31113  1  0  0  0  0
 31114  1  0  0  0  0
 32 33  1  0  0  0  0
 32115  1  0  0  0  0
 32116  1  0  0  0  0
 33 34  1  0  0  0  0
 33117  1  0  0  0  0
 33118  1  0  0  0  0
 34 35  1  0  0  0  0
 34119  1  0  0  0  0
 34120  1  0  0  0  0
 35 36  1  0  0  0  0
 35121  1  0  0  0  0
 35122  1  0  0  0  0
 36 37  1  0  0  0  0
 36123  1  0  0  0  0
 36124  1  0  0  0  0
 37 38  1  0  0  0  0
 37125  1  0  0  0  0
 37126  1  0  0  0  0
 38 39  1  0  0  0  0
 38127  1  0  0  0  0
 38128  1  0  0  0  0
 39 40  1  0  0  0  0
 39129  1  0  0  0  0
 39130  1  0  0  0  0
 40 41  1  0  0  0  0
 40131  1  0  0  0  0
 40132  1  0  0  0  0
 41 42  1  0  0  0  0
 41133  1  0  0  0  0
 41134  1  0  0  0  0
 42 43  1  0  0  0  0
 42135  1  0  0  0  0
 42136  1  0  0  0  0
 43 44  1  0  0  0  0
 43137  1  0  0  0  0
 43138  1  0  0  0  0
 44 45  1  0  0  0  0
 44139  1  0  0  0  0
 44140  1  0  0  0  0
 45 46  1  0  0  0  0
 45141  1  0  0  0  0
 45142  1  0  0  0  0
 46 47  1  0  0  0  0
 46143  1  0  0  0  0
 46144  1  0  0  0  0
 47 48  1  0  0  0  0
 47145  1  0  0  0  0
 47146  1  0  0  0  0
 48 49  1  0  0  0  0
 48147  1  0  0  0  0
 48148  1  0  0  0  0
 49 50  1  0  0  0  0
 49149  1  0  0  0  0
 49150  1  0  0  0  0
 50 51  1  0  0  0  0
 50151  1  0  0  0  0
 50152  1  0  0  0  0
 51 52  1  0  0  0  0
 51153  1  0  0  0  0
 51154  1  0  0  0  0
 52 53  1  0  0  0  0
 52155  1  0  0  0  0
 52156  1  0  0  0  0
 53 54  1  0  0  0  0
 53157  1  0  0  0  0
 53158  1  0  0  0  0
 54 55  1  0  0  0  0
 54159  1  0  0  0  0
 54160  1  0  0  0  0
 55 56  1  0  0  0  0
 55161  1  0  0  0  0
 55162  1  0  0  0  0
 56 57  1  0  0  0  0
 56163  1  0  0  0  0
 56164  1  0  0  0  0
 57 58  1  0  0  0  0
 57165  1  0  0  0  0
 57166  1  0  0  0  0
 58 59  1  0  0  0  0
 58167  1  0  0  0  0
 58168  1  0  0  0  0
 59 60  1  0  0  0  0
 59169  1  0  0  0  0
 59170  1  0  0  0  0
 60 61  1  0  0  0  0
 60171  1  0  0  0  0
 60172  1  0  0  0  0
 61 62  1  0  0  0  0
 61173  1  0  0  0  0
 61174  1  0  0  0  0
 62 63  1  0  0  0  0
 62175  1  0  0  0  0
 62176  1  0  0  0  0
 63 64  1  0  0  0  0
 63177  1  0  0  0  0
 63178  1  0  0  0  0
 64 65  1  0  0  0  0
 64179  1  0  0  0  0
 64180  1  0  0  0  0
 65 66  1  0  0  0  0
 65181  1  0  0  0  0
 65182  1  0  0  0  0
 66 67  1  0  0  0  0
 66183  1  0  0  0  0
 66184  1  0  0  0  0
 67 68  1  0  0  0  0
 67185  1  0  0  0  0
 67186  1  0  0  0  0
 68 69  1  0  0  0  0
 68187  1  0  0  0  0
 68188  1  0  0  0  0
 69 70  1  0  0  0  0
 69189  1  0  0  0  0
 69190  1  0  0  0  0
 70 71  1  0  0  0  0
 70191  1  0  0  0  0
 70192  1  0  0  0  0
 71 72  1  0  0  0  0
 71193  1  0  0  0  0
 71194  1  0  0  0  0
 72 73  1  0  0  0  0
 72195  1  0  0  0  0
 72196  1  0  0  0  0
 73 74  1  0  0  0  0
 73197  1  0  0  0  0
 73198  1  0  0  0  0
 74 75  1  0  0  0  0
 74199  1  0  0  0  0
 74200  1  0  0  0  0
 75 76  1  0  0  0  0
 75201  1  0  0  0  0
 75202  1  0  0  0  0
 76 77  1  0  0  0  0
 76203  1  0  0  0  0
 76204  1  0  0  0  0
 77 78  1  0  0  0  0
 77205  1  0  0  0  0
 77206  1  0  0  0  0
 78 79  1  0  0  0  0
 78207  1  0  0  0  0
 78208  1  0  0  0  0
 79 80  1  0  0  0  0
 79209  1  0  0  0  0
 79210  1  0  0  0  0
 80211  1  0  0  0  0
 80212  1  0  0  0  0
 80213  1  0  0  0  0
M  END
$$$$
