
 OpenBabel04232216463D

 52 53  0  0  0  0  0  0  0  0999 V2000
    2.9692    1.4434    0.7617 C   0  0  0  0  0  0  0  0  0  0  0  0
    4.4110    1.6620    1.1577 C   0  0  0  0  0  0  0  0  0  0  0  0
    4.8843    0.6139    2.0749 C   0  0  0  0  0  0  0  0  0  0  0  0
    5.7578   -0.2840    1.5951 C   0  0  0  0  0  0  0  0  0  0  0  0
    5.6283   -0.9125    0.1696 C   0  0  0  0  0  0  0  0  0  0  0  0
    6.4215   -2.2100   -0.0902 C   0  0  0  0  0  0  0  0  0  0  0  0
    5.5645   -3.4365   -0.0374 C   0  0  0  0  0  0  0  0  0  0  0  0
    5.2635   -4.1698   -1.1235 C   0  0  0  0  0  0  0  0  0  0  0  0
    4.4361   -5.4096   -1.0865 C   0  0  0  0  0  0  0  0  0  0  0  0
    7.1464   -0.0779    2.0934 C   0  0  0  0  0  0  0  0  0  0  0  0
    7.5190   -0.1846    3.5613 C   0  0  0  0  0  0  0  0  0  0  0  0
    7.3328    0.7941    4.4776 C   0  0  0  0  0  0  0  0  0  0  0  0
    8.2292    1.8184    4.9736 C   0  0  0  0  0  0  0  0  0  0  0  0
    8.6731    2.9131    4.3078 C   0  0  0  0  0  0  0  0  0  0  0  0
    8.5215    3.0370    2.8379 C   0  0  0  0  0  0  0  0  0  0  0  0
    9.7052    2.5839    2.3428 C   0  0  0  0  0  0  0  0  0  0  0  0
    9.9901    1.2053    1.8879 C   0  0  0  0  0  0  0  0  0  0  0  0
   10.6406    0.2233    2.8396 C   0  0  0  0  0  0  0  0  0  0  0  0
    9.3452    0.6208    0.8932 C   0  0  0  0  0  0  0  0  0  0  0  0
    7.9589    0.3128    1.0766 C   0  0  0  0  0  0  0  0  0  0  0  0
    7.1331    2.9732    2.2756 C   0  0  0  0  0  0  0  0  0  0  0  0
    6.6794    2.9198    0.9984 C   0  0  0  0  0  0  0  0  0  0  0  0
    5.3008    2.5052    0.5440 C   0  0  0  0  0  0  0  0  0  0  0  0
    5.1649    2.5748   -0.9709 C   0  0  0  0  0  0  0  0  0  0  0  0
    2.3139    1.6428    1.6212 H   0  0  0  0  0  0  0  0  0  0  0  0
    2.7893    0.4129    0.4392 H   0  0  0  0  0  0  0  0  0  0  0  0
    2.6380    2.1131   -0.0367 H   0  0  0  0  0  0  0  0  0  0  0  0
    4.8915    0.9745    3.0973 H   0  0  0  0  0  0  0  0  0  0  0  0
    5.9669   -0.1935   -0.5863 H   0  0  0  0  0  0  0  0  0  0  0  0
    4.5720   -1.0523   -0.0891 H   0  0  0  0  0  0  0  0  0  0  0  0
    7.2598   -2.3462    0.6045 H   0  0  0  0  0  0  0  0  0  0  0  0
    6.8842   -2.1363   -1.0854 H   0  0  0  0  0  0  0  0  0  0  0  0
    5.1985   -3.7317    0.9442 H   0  0  0  0  0  0  0  0  0  0  0  0
    5.6357   -3.8690   -2.1001 H   0  0  0  0  0  0  0  0  0  0  0  0
    4.1813   -5.7046   -0.0643 H   0  0  0  0  0  0  0  0  0  0  0  0
    4.9860   -6.2339   -1.5518 H   0  0  0  0  0  0  0  0  0  0  0  0
    3.5079   -5.2554   -1.6452 H   0  0  0  0  0  0  0  0  0  0  0  0
    6.8858   -1.0340    3.8402 H   0  0  0  0  0  0  0  0  0  0  0  0
    6.2863    1.1327    4.6607 H   0  0  0  0  0  0  0  0  0  0  0  0
    8.5649    1.6806    5.9961 H   0  0  0  0  0  0  0  0  0  0  0  0
    9.3794    3.5869    4.7894 H   0  0  0  0  0  0  0  0  0  0  0  0
   10.6119    2.8868    2.8773 H   0  0  0  0  0  0  0  0  0  0  0  0
   11.7249    0.3415    2.9099 H   0  0  0  0  0  0  0  0  0  0  0  0
   10.4352   -0.8118    2.5309 H   0  0  0  0  0  0  0  0  0  0  0  0
   10.2124    0.3014    3.8461 H   0  0  0  0  0  0  0  0  0  0  0  0
    9.7894   -0.2239    0.3676 H   0  0  0  0  0  0  0  0  0  0  0  0
    7.5249    0.5427    0.1068 H   0  0  0  0  0  0  0  0  0  0  0  0
    6.3804    2.8643    3.0488 H   0  0  0  0  0  0  0  0  0  0  0  0
    7.3976    3.0941    0.2028 H   0  0  0  0  0  0  0  0  0  0  0  0
    4.3354    1.9653   -1.3514 H   0  0  0  0  0  0  0  0  0  0  0  0
    5.0573    3.5898   -1.3414 H   0  0  0  0  0  0  0  0  0  0  0  0
    6.0530    2.1113   -1.4261 H   0  0  0  0  0  0  0  0  0  0  0  0
  1  2  1  0  0  0  0
  1 25  1  0  0  0  0
  1 26  1  0  0  0  0
  1 27  1  0  0  0  0
  2  3  1  0  0  0  0
  2 23  2  3  0  0  0
  3  4  2  3  0  0  0
  3 28  1  0  0  0  0
  4  5  1  0  0  0  0
  4 10  1  0  0  0  0
  5  6  1  0  0  0  0
  5 29  1  0  0  0  0
  5 30  1  0  0  0  0
  6  7  1  0  0  0  0
  6 31  1  0  0  0  0
  6 32  1  0  0  0  0
  7  8  2  3  0  0  0
  7 33  1  0  0  0  0
  8  9  1  0  0  0  0
  8 34  1  0  0  0  0
  9 35  1  0  0  0  0
  9 36  1  0  0  0  0
  9 37  1  0  0  0  0
 10 11  1  0  0  0  0
 10 20  2  0  0  0  0
 11 12  2  0  0  0  0
 11 38  1  0  0  0  0
 12 13  1  0  0  0  0
 12 39  1  0  0  0  0
 13 14  2  0  0  0  0
 13 40  1  0  0  0  0
 14 15  1  0  0  0  0
 14 41  1  0  0  0  0
 15 16  2  0  0  0  0
 15 21  1  0  0  0  0
 16 17  1  0  0  0  0
 16 42  1  0  0  0  0
 17 18  1  0  0  0  0
 17 19  2  0  0  0  0
 18 43  1  0  0  0  0
 18 44  1  0  0  0  0
 18 45  1  0  0  0  0
 19 20  1  0  0  0  0
 19 46  1  0  0  0  0
 20 47  1  0  0  0  0
 21 22  2  3  0  0  0
 21 48  1  0  0  0  0
 22 23  1  0  0  0  0
 22 49  1  0  0  0  0
 23 24  1  0  0  0  0
 24 50  1  0  0  0  0
 24 51  1  0  0  0  0
 24 52  1  0  0  0  0
M  END
$$$$
