
 OpenBabel04232216553D

100 99  0  0  0  0  0  0  0  0999 V2000
   21.1462   -6.8260  -10.7826 C   0  0  0  0  0  0  0  0  0  0  0  0
   20.5322   -5.4418  -10.7943 C   0  0  0  0  0  0  0  0  0  0  0  0
   20.9399   -4.7013  -12.0700 C   0  0  0  0  0  0  0  0  0  0  0  0
   20.3151   -3.3113  -12.1090 C   0  0  0  0  0  0  0  0  0  0  0  0
   20.7631   -2.6351  -13.3245 N   0  0  0  0  0  0  0  0  0  0  0  0
   20.1538   -1.3283  -13.3619 N   0  0  0  0  0  0  0  0  0  0  0  0
   20.5498   -0.5908  -14.5351 N   0  0  0  0  0  0  0  0  0  0  0  0
   19.9482    0.7175  -14.5867 N   0  0  0  0  0  0  0  0  0  0  0  0
   20.3648    1.4266  -15.7474 N   0  0  0  0  0  0  0  0  0  0  0  0
   19.7626    2.7023  -15.7587 N   0  0  0  0  0  0  0  0  0  0  0  0
   20.1456    3.4775  -14.6356 N   0  0  0  0  0  0  0  0  0  0  0  0
   19.4788    4.9818  -14.5878 S   0  0  0  0  0  0  0  0  0  0  0  0
   17.8301    4.8508  -14.5082 N   0  0  0  0  0  0  0  0  0  0  0  0
   17.2431    4.0830  -13.1569 S   0  0  0  0  0  0  0  0  0  0  0  0
   17.7045    4.8723  -11.7483 N   0  0  0  0  0  0  0  0  0  0  0  0
   17.0984    6.4111  -11.6813 S   0  0  0  0  0  0  0  0  0  0  0  0
   17.8101    7.1496   -9.8959 S   0  0  0  0  0  0  0  0  0  0  0  0
   19.8814    7.2028   -9.9136 S   0  0  0  0  0  0  0  0  0  0  0  0
   20.5804    8.4257  -11.4428 S   0  0  0  0  0  0  0  0  0  0  0  0
   22.6950    8.3891  -11.4288 S   0  0  0  0  0  0  0  0  0  0  0  0
   23.4006    9.5735  -13.0338 S   0  0  0  0  0  0  0  0  0  0  0  0
   25.5144    9.5673  -13.0243 S   0  0  0  0  0  0  0  0  0  0  0  0
   26.2085   10.7517  -14.6305 S   0  0  0  0  0  0  0  0  0  0  0  0
   28.3196   10.7448  -14.6213 S   0  0  0  0  0  0  0  0  0  0  0  0
   29.0110   11.9282  -16.2260 S   0  0  0  0  0  0  0  0  0  0  0  0
   31.1208   11.9206  -16.2156 S   0  0  0  0  0  0  0  0  0  0  0  0
   31.8116   13.1036  -17.8199 S   0  0  0  0  0  0  0  0  0  0  0  0
   33.9211   13.0957  -17.8092 S   0  0  0  0  0  0  0  0  0  0  0  0
   34.6117   14.2787  -19.4134 S   0  0  0  0  0  0  0  0  0  0  0  0
   36.7211   14.2708  -19.4028 S   0  0  0  0  0  0  0  0  0  0  0  0
   37.4117   15.4538  -21.0069 S   0  0  0  0  0  0  0  0  0  0  0  0
   39.5211   15.4459  -20.9962 S   0  0  0  0  0  0  0  0  0  0  0  0
   40.2117   16.6289  -22.6004 S   0  0  0  0  0  0  0  0  0  0  0  0
   42.3211   16.6210  -22.5897 S   0  0  0  0  0  0  0  0  0  0  0  0
   43.0117   17.8040  -24.1939 S   0  0  0  0  0  0  0  0  0  0  0  0
   45.1211   17.7961  -24.1832 S   0  0  0  0  0  0  0  0  0  0  0  0
   45.8117   18.9790  -25.7874 S   0  0  0  0  0  0  0  0  0  0  0  0
   47.9211   18.9712  -25.7767 S   0  0  0  0  0  0  0  0  0  0  0  0
   48.6117   20.1541  -27.3809 S   0  0  0  0  0  0  0  0  0  0  0  0
   50.7211   20.1463  -27.3702 S   0  0  0  0  0  0  0  0  0  0  0  0
   51.4117   21.3292  -28.9743 S   0  0  0  0  0  0  0  0  0  0  0  0
   53.5211   21.3213  -28.9637 S   0  0  0  0  0  0  0  0  0  0  0  0
   54.2117   22.5043  -30.5678 S   0  0  0  0  0  0  0  0  0  0  0  0
   56.3211   22.4964  -30.5572 S   0  0  0  0  0  0  0  0  0  0  0  0
   57.0117   23.6794  -32.1613 S   0  0  0  0  0  0  0  0  0  0  0  0
   59.1211   23.6715  -32.1506 S   0  0  0  0  0  0  0  0  0  0  0  0
   59.8117   24.8544  -33.7548 S   0  0  0  0  0  0  0  0  0  0  0  0
   61.9211   24.8466  -33.7441 S   0  0  0  0  0  0  0  0  0  0  0  0
   62.6117   26.0295  -35.3483 S   0  0  0  0  0  0  0  0  0  0  0  0
   64.7210   26.0217  -35.3376 S   0  0  0  0  0  0  0  0  0  0  0  0
   65.4117   27.2046  -36.9418 S   0  0  0  0  0  0  0  0  0  0  0  0
   67.5210   27.1967  -36.9311 S   0  0  0  0  0  0  0  0  0  0  0  0
   68.2117   28.3797  -38.5353 S   0  0  0  0  0  0  0  0  0  0  0  0
   70.3210   28.3718  -38.5246 S   0  0  0  0  0  0  0  0  0  0  0  0
   71.0117   29.5548  -40.1287 S   0  0  0  0  0  0  0  0  0  0  0  0
   73.1210   29.5469  -40.1181 S   0  0  0  0  0  0  0  0  0  0  0  0
   73.8116   30.7298  -41.7222 S   0  0  0  0  0  0  0  0  0  0  0  0
   75.9210   30.7220  -41.7116 S   0  0  0  0  0  0  0  0  0  0  0  0
   76.6116   31.9049  -43.3157 S   0  0  0  0  0  0  0  0  0  0  0  0
   78.7210   31.8971  -43.3050 S   0  0  0  0  0  0  0  0  0  0  0  0
   79.4116   33.0800  -44.9092 S   0  0  0  0  0  0  0  0  0  0  0  0
   81.5210   33.0721  -44.8985 S   0  0  0  0  0  0  0  0  0  0  0  0
   82.2116   34.2551  -46.5027 S   0  0  0  0  0  0  0  0  0  0  0  0
   84.3210   34.2472  -46.4920 S   0  0  0  0  0  0  0  0  0  0  0  0
   85.0116   35.4302  -48.0962 S   0  0  0  0  0  0  0  0  0  0  0  0
   87.1210   35.4223  -48.0855 S   0  0  0  0  0  0  0  0  0  0  0  0
   87.8116   36.6052  -49.6897 S   0  0  0  0  0  0  0  0  0  0  0  0
   89.9210   36.5974  -49.6790 S   0  0  0  0  0  0  0  0  0  0  0  0
   90.6116   37.7803  -51.2831 S   0  0  0  0  0  0  0  0  0  0  0  0
   92.7209   37.7724  -51.2724 S   0  0  0  0  0  0  0  0  0  0  0  0
   93.4114   38.9553  -52.8765 S   0  0  0  0  0  0  0  0  0  0  0  0
   95.5205   38.9474  -52.8657 S   0  0  0  0  0  0  0  0  0  0  0  0
   96.2106   40.1301  -54.4696 S   0  0  0  0  0  0  0  0  0  0  0  0
   98.3187   40.1217  -54.4582 S   0  0  0  0  0  0  0  0  0  0  0  0
   99.0068   41.3036  -56.0608 S   0  0  0  0  0  0  0  0  0  0  0  0
  101.1110   41.2927  -56.0467 S   0  0  0  0  0  0  0  0  0  0  0  0
  101.7923   42.4718  -57.6452 S   0  0  0  0  0  0  0  0  0  0  0  0
  103.8827   42.4693  -57.6052 S   0  0  0  0  0  0  0  0  0  0  0  0
  104.5555   43.5841  -59.2267 S   0  0  0  0  0  0  0  0  0  0  0  0
  106.6300   43.5984  -59.1575 S   0  0  0  0  0  0  0  0  0  0  0  0
  107.2274   41.6511  -59.4463 S   0  0  0  0  0  0  0  0  0  0  0  0
   20.8435   -7.3664   -9.8646 H   0  0  0  0  0  0  0  0  0  0  0  0
   22.2409   -6.7597  -10.7771 H   0  0  0  0  0  0  0  0  0  0  0  0
   20.8364   -7.4155  -11.6393 H   0  0  0  0  0  0  0  0  0  0  0  0
   20.8294   -4.8849   -9.9230 H   0  0  0  0  0  0  0  0  0  0  0  0
   19.4225   -5.5331  -10.7692 H   0  0  0  0  0  0  0  0  0  0  0  0
   20.6502   -5.2720  -12.9498 H   0  0  0  0  0  0  0  0  0  0  0  0
   22.0410   -4.6076  -12.0890 H   0  0  0  0  0  0  0  0  0  0  0  0
   20.6165   -2.7421  -11.2218 H   0  0  0  0  0  0  0  0  0  0  0  0
   19.2188   -3.4010  -12.1017 H   0  0  0  0  0  0  0  0  0  0  0  0
   20.4681   -3.2100  -14.1190 H   0  0  0  0  0  0  0  0  0  0  0  0
   20.4660   -0.8224  -12.5231 H   0  0  0  0  0  0  0  0  0  0  0  0
   20.2518   -1.1128  -15.3775 H   0  0  0  0  0  0  0  0  0  0  0  0
   20.2404    1.3098  -13.8010 H   0  0  0  0  0  0  0  0  0  0  0  0
   20.0804    0.9260  -16.5982 H   0  0  0  0  0  0  0  0  0  0  0  0
   18.7511    2.5875  -15.7601 H   0  0  0  0  0  0  0  0  0  0  0  0
   21.1794    3.5278  -14.6428 H   0  0  0  0  0  0  0  0  0  0  0  0
   17.5033    4.3911  -15.3864 H   0  0  0  0  0  0  0  0  0  0  0  0
   18.7325    4.8757  -11.7177 H   0  0  0  0  0  0  0  0  0  0  0  0
  108.5697   41.7562  -59.4000 H   0  0  0  0  0  0  0  0  0  0  0  0
  1  2  1  0  0  0  0
  1 82  1  0  0  0  0
  1 83  1  0  0  0  0
  1 84  1  0  0  0  0
  2  3  1  0  0  0  0
  2 85  1  0  0  0  0
  2 86  1  0  0  0  0
  3  4  1  0  0  0  0
  3 87  1  0  0  0  0
  3 88  1  0  0  0  0
  4  5  1  0  0  0  0
  4 89  1  0  0  0  0
  4 90  1  0  0  0  0
  5  6  1  0  0  0  0
  5 91  1  0  0  0  0
  6  7  1  0  0  0  0
  6 92  1  0  0  0  0
  7  8  1  0  0  0  0
  7 93  1  0  0  0  0
  8  9  1  0  0  0  0
  8 94  1  0  0  0  0
  9 10  1  0  0  0  0
  9 95  1  0  0  0  0
 10 11  1  0  0  0  0
 10 96  1  0  0  0  0
 11 12  1  0  0  0  0
 11 97  1  0  0  0  0
 12 13  1  0  0  0  0
 13 14  1  0  0  0  0
 13 98  1  0  0  0  0
 14 15  1  0  0  0  0
 15 16  1  0  0  0  0
 15 99  1  0  0  0  0
 16 17  1  0  0  0  0
 17 18  1  0  0  0  0
 18 19  1  0  0  0  0
 19 20  1  0  0  0  0
 20 21  1  0  0  0  0
 21 22  1  0  0  0  0
 22 23  1  0  0  0  0
 23 24  1  0  0  0  0
 24 25  1  0  0  0  0
 25 26  1  0  0  0  0
 26 27  1  0  0  0  0
 27 28  1  0  0  0  0
 28 29  1  0  0  0  0
 29 30  1  0  0  0  0
 30 31  1  0  0  0  0
 31 32  1  0  0  0  0
 32 33  1  0  0  0  0
 33 34  1  0  0  0  0
 34 35  1  0  0  0  0
 35 36  1  0  0  0  0
 36 37  1  0  0  0  0
 37 38  1  0  0  0  0
 38 39  1  0  0  0  0
 39 40  1  0  0  0  0
 40 41  1  0  0  0  0
 41 42  1  0  0  0  0
 42 43  1  0  0  0  0
 43 44  1  0  0  0  0
 44 45  1  0  0  0  0
 45 46  1  0  0  0  0
 46 47  1  0  0  0  0
 47 48  1  0  0  0  0
 48 49  1  0  0  0  0
 49 50  1  0  0  0  0
 50 51  1  0  0  0  0
 51 52  1  0  0  0  0
 52 53  1  0  0  0  0
 53 54  1  0  0  0  0
 54 55  1  0  0  0  0
 55 56  1  0  0  0  0
 56 57  1  0  0  0  0
 57 58  1  0  0  0  0
 58 59  1  0  0  0  0
 59 60  1  0  0  0  0
 60 61  1  0  0  0  0
 61 62  1  0  0  0  0
 62 63  1  0  0  0  0
 63 64  1  0  0  0  0
 64 65  1  0  0  0  0
 65 66  1  0  0  0  0
 66 67  1  0  0  0  0
 67 68  1  0  0  0  0
 68 69  1  0  0  0  0
 69 70  1  0  0  0  0
 70 71  1  0  0  0  0
 71 72  1  0  0  0  0
 72 73  1  0  0  0  0
 73 74  1  0  0  0  0
 74 75  1  0  0  0  0
 75 76  1  0  0  0  0
 76 77  1  0  0  0  0
 77 78  1  0  0  0  0
 78 79  1  0  0  0  0
 79 80  1  0  0  0  0
 80 81  1  0  0  0  0
 81100  1  0  0  0  0
M  END
$$$$
