
 OpenBabel04232216463D

 46 47  0  0  0  0  0  0  0  0999 V2000
    2.1527    3.1595    0.7173 C   0  0  0  0  0  0  0  0  0  0  0  0
    3.4147    2.4479    1.0835 C   0  0  0  0  0  0  0  0  0  0  0  0
    3.7047    1.7259    2.2807 C   0  0  0  0  0  0  0  0  0  0  0  0
    4.9295    1.4058    1.8179 C   0  0  0  0  0  0  0  0  0  0  0  0
    5.9925    0.6338    2.5509 C   0  0  0  0  0  0  0  0  0  0  0  0
    7.0480   -0.2214    1.8812 C   0  0  0  0  0  0  0  0  0  0  0  0
    7.6385   -1.0933    2.9709 C   0  0  0  0  0  0  0  0  0  0  0  0
    8.4451   -2.1440    2.7806 C   0  0  0  0  0  0  0  0  0  0  0  0
    9.1028   -2.8699    3.9228 C   0  0  0  0  0  0  0  0  0  0  0  0
   10.5618   -2.4851    3.8691 C   0  0  0  0  0  0  0  0  0  0  0  0
   11.4289   -3.1332    4.9341 C   0  0  0  0  0  0  0  0  0  0  0  0
   12.8643   -2.7842    4.5921 C   0  0  0  0  0  0  0  0  0  0  0  0
   13.1257   -1.8888    3.7906 O   0  0  0  0  0  0  0  0  0  0  0  0
   13.9528   -3.5576    5.2888 C   0  0  0  0  0  0  0  0  0  0  0  0
   15.2041   -3.6547    4.7933 C   0  0  0  0  0  0  0  0  0  0  0  0
   15.8233   -2.4365    4.3141 C   0  0  0  0  0  0  0  0  0  0  0  0
   15.6755   -1.2781    4.9915 C   0  0  0  0  0  0  0  0  0  0  0  0
   14.8622   -0.9958    6.2458 C   0  0  0  0  0  0  0  0  0  0  0  0
   14.2840   -2.0609    7.2180 C   0  0  0  0  0  0  0  0  0  0  0  0
   14.0657   -1.7378    8.3947 O   0  0  0  0  0  0  0  0  0  0  0  0
   13.8878   -3.4754    6.7758 C   0  0  0  0  0  0  0  0  0  0  0  0
    4.6645    2.1676    0.6284 C   0  0  0  0  0  0  0  0  0  0  0  0
    1.3869    3.0004    1.4855 H   0  0  0  0  0  0  0  0  0  0  0  0
    1.7975    2.8424   -0.2660 H   0  0  0  0  0  0  0  0  0  0  0  0
    2.3475    4.2301    0.6140 H   0  0  0  0  0  0  0  0  0  0  0  0
    3.1588    1.5219    3.1969 H   0  0  0  0  0  0  0  0  0  0  0  0
    5.4426    0.0263    3.2836 H   0  0  0  0  0  0  0  0  0  0  0  0
    6.5272    1.3642    3.1773 H   0  0  0  0  0  0  0  0  0  0  0  0
    7.8368    0.4019    1.4441 H   0  0  0  0  0  0  0  0  0  0  0  0
    6.6214   -0.8462    1.0896 H   0  0  0  0  0  0  0  0  0  0  0  0
    7.4046   -0.8239    4.0020 H   0  0  0  0  0  0  0  0  0  0  0  0
    8.7467   -2.4246    1.7742 H   0  0  0  0  0  0  0  0  0  0  0  0
    8.9698   -3.9499    3.8094 H   0  0  0  0  0  0  0  0  0  0  0  0
    8.6711   -2.5865    4.8942 H   0  0  0  0  0  0  0  0  0  0  0  0
   10.6537   -1.3931    3.9654 H   0  0  0  0  0  0  0  0  0  0  0  0
   10.9594   -2.7450    2.8782 H   0  0  0  0  0  0  0  0  0  0  0  0
   11.3092   -4.2209    4.9378 H   0  0  0  0  0  0  0  0  0  0  0  0
   11.1805   -2.7321    5.9264 H   0  0  0  0  0  0  0  0  0  0  0  0
   15.9511   -4.2574    5.3150 H   0  0  0  0  0  0  0  0  0  0  0  0
   16.3729   -2.4836    3.3766 H   0  0  0  0  0  0  0  0  0  0  0  0
   16.1068   -0.3903    4.5211 H   0  0  0  0  0  0  0  0  0  0  0  0
   14.0108   -0.3650    5.9433 H   0  0  0  0  0  0  0  0  0  0  0  0
   15.5068   -0.3697    6.8665 H   0  0  0  0  0  0  0  0  0  0  0  0
   12.8826   -3.7002    7.1435 H   0  0  0  0  0  0  0  0  0  0  0  0
   14.5727   -4.1873    7.2507 H   0  0  0  0  0  0  0  0  0  0  0  0
    5.2382    2.4277   -0.2583 H   0  0  0  0  0  0  0  0  0  0  0  0
  1  2  1  0  0  0  0
  1 23  1  0  0  0  0
  1 24  1  0  0  0  0
  1 25  1  0  0  0  0
  2  3  1  0  0  0  0
  2 22  2  0  0  0  0
  3  4  2  0  0  0  0
  3 26  1  0  0  0  0
  4  5  1  0  0  0  0
  4 22  1  0  0  0  0
  5  6  1  0  0  0  0
  5 27  1  0  0  0  0
  5 28  1  0  0  0  0
  6  7  1  0  0  0  0
  6 29  1  0  0  0  0
  6 30  1  0  0  0  0
  7  8  2  3  0  0  0
  7 31  1  0  0  0  0
  8  9  1  0  0  0  0
  8 32  1  0  0  0  0
  9 10  1  0  0  0  0
  9 33  1  0  0  0  0
  9 34  1  0  0  0  0
 10 11  1  0  0  0  0
 10 35  1  0  0  0  0
 10 36  1  0  0  0  0
 11 12  1  0  0  0  0
 11 37  1  0  0  0  0
 11 38  1  0  0  0  0
 12 13  2  0  0  0  0
 12 14  1  0  0  0  0
 14 15  2  0  0  0  0
 14 21  1  0  0  0  0
 15 16  1  0  0  0  0
 15 39  1  0  0  0  0
 16 17  2  0  0  0  0
 16 40  1  0  0  0  0
 17 18  1  0  0  0  0
 17 41  1  0  0  0  0
 18 19  1  0  0  0  0
 18 42  1  0  0  0  0
 18 43  1  0  0  0  0
 19 20  2  0  0  0  0
 19 21  1  0  0  0  0
 21 44  1  0  0  0  0
 21 45  1  0  0  0  0
 22 46  1  0  0  0  0
M  END
$$$$
