
 OpenBabel04232216523D

 55 56  0  0  0  0  0  0  0  0999 V2000
    2.6356   -2.9477   -0.3678 C   0  0  0  0  0  0  0  0  0  0  0  0
    3.1761   -2.3735   -1.6808 C   0  0  0  0  0  0  0  0  0  0  0  0
    4.6950   -2.0239   -1.8527 C   0  0  0  0  0  0  0  0  0  0  0  0
    5.8048   -3.1096   -1.6820 C   0  0  0  0  0  0  0  0  0  0  0  0
    5.7574   -3.6692   -0.3718 C   0  0  0  0  0  0  0  0  0  0  0  0
    6.2329   -3.0660    0.7405 C   0  0  0  0  0  0  0  0  0  0  0  0
    6.5291   -1.5883    0.8665 C   0  0  0  0  0  0  0  0  0  0  0  0
    6.8897   -4.0167    1.6757 C   0  0  0  0  0  0  0  0  0  0  0  0
    8.1354   -4.3709    1.2561 C   0  0  0  0  0  0  0  0  0  0  0  0
    9.1227   -3.1580    1.0068 C   0  0  0  0  0  0  0  0  0  0  0  0
   10.6217   -3.2814    1.2496 C   0  0  0  0  0  0  0  0  0  0  0  0
   11.1801   -4.2169    1.7975 O   0  0  0  0  0  0  0  0  0  0  0  0
    8.1208   -5.4976    0.2098 C   0  0  0  0  0  0  0  0  0  0  0  0
    8.9522   -5.1888   -0.8017 C   0  0  0  0  0  0  0  0  0  0  0  0
    8.7406   -5.3084   -2.2052 C   0  0  0  0  0  0  0  0  0  0  0  0
    9.6688   -6.2231   -2.8011 N   0  0  0  0  0  0  0  0  0  0  0  0
   10.3282   -7.3643   -2.0316 C   0  0  0  0  0  0  0  0  0  0  0  0
    9.5856   -8.7367   -2.2343 C   0  0  0  0  0  0  0  0  0  0  0  0
    8.2341   -8.4332   -1.6508 C   0  0  0  0  0  0  0  0  0  0  0  0
    6.9666   -9.1083   -1.2475 C   0  0  0  0  0  0  0  0  0  0  0  0
    6.1067   -7.9161   -0.6358 C   0  0  0  0  0  0  0  0  0  0  0  0
    6.8761   -6.5780    0.0953 C   0  0  0  0  0  0  0  0  0  0  0  0
    7.8406   -4.4993   -2.8536 C   0  0  0  0  0  0  0  0  0  0  0  0
    6.7795   -3.4232   -2.6026 C   0  0  0  0  0  0  0  0  0  0  0  0
    1.5480   -3.0944   -0.4579 H   0  0  0  0  0  0  0  0  0  0  0  0
    2.7835   -2.2702    0.4801 H   0  0  0  0  0  0  0  0  0  0  0  0
    3.0539   -3.9273   -0.1248 H   0  0  0  0  0  0  0  0  0  0  0  0
    2.6254   -1.4323   -1.8279 H   0  0  0  0  0  0  0  0  0  0  0  0
    2.8611   -3.0336   -2.4950 H   0  0  0  0  0  0  0  0  0  0  0  0
    4.8965   -1.1876   -1.1729 H   0  0  0  0  0  0  0  0  0  0  0  0
    4.7874   -1.5916   -2.8571 H   0  0  0  0  0  0  0  0  0  0  0  0
    5.5335   -4.7135   -0.4185 H   0  0  0  0  0  0  0  0  0  0  0  0
    7.1868   -1.2424    0.0553 H   0  0  0  0  0  0  0  0  0  0  0  0
    5.6075   -0.9939    0.8486 H   0  0  0  0  0  0  0  0  0  0  0  0
    7.0153   -1.3347    1.8150 H   0  0  0  0  0  0  0  0  0  0  0  0
    6.2051   -4.8091    1.9583 H   0  0  0  0  0  0  0  0  0  0  0  0
    8.8524   -2.3132    1.6478 H   0  0  0  0  0  0  0  0  0  0  0  0
    9.0178   -2.7954   -0.0274 H   0  0  0  0  0  0  0  0  0  0  0  0
   11.1964   -2.3944    0.8765 H   0  0  0  0  0  0  0  0  0  0  0  0
    9.8878   -4.6689   -0.6356 H   0  0  0  0  0  0  0  0  0  0  0  0
   10.4098   -5.6765   -3.2398 H   0  0  0  0  0  0  0  0  0  0  0  0
   10.3390   -7.1524   -0.9507 H   0  0  0  0  0  0  0  0  0  0  0  0
   11.3862   -7.4431   -2.2928 H   0  0  0  0  0  0  0  0  0  0  0  0
   10.0982   -9.5273   -1.6703 H   0  0  0  0  0  0  0  0  0  0  0  0
    9.5631   -9.0185   -3.2905 H   0  0  0  0  0  0  0  0  0  0  0  0
    7.8494   -7.6629   -2.3166 H   0  0  0  0  0  0  0  0  0  0  0  0
    8.5536   -8.0869   -0.6723 H   0  0  0  0  0  0  0  0  0  0  0  0
    7.1194   -9.8949   -0.5013 H   0  0  0  0  0  0  0  0  0  0  0  0
    6.4431   -9.5637   -2.1008 H   0  0  0  0  0  0  0  0  0  0  0  0
    5.3866   -8.3221    0.0820 H   0  0  0  0  0  0  0  0  0  0  0  0
    5.4828   -7.5249   -1.4602 H   0  0  0  0  0  0  0  0  0  0  0  0
    6.9015   -6.2850   -0.9532 H   0  0  0  0  0  0  0  0  0  0  0  0
    7.4381   -7.2683    0.7308 H   0  0  0  0  0  0  0  0  0  0  0  0
    7.9118   -4.6138   -3.9397 H   0  0  0  0  0  0  0  0  0  0  0  0
    6.7481   -2.7838   -3.4923 H   0  0  0  0  0  0  0  0  0  0  0  0
  1  2  1  0  0  0  0
  1 25  1  0  0  0  0
  1 26  1  0  0  0  0
  1 27  1  0  0  0  0
  2  3  1  0  0  0  0
  2 28  1  0  0  0  0
  2 29  1  0  0  0  0
  3  4  1  0  0  0  0
  3 30  1  0  0  0  0
  3 31  1  0  0  0  0
  4  5  1  0  0  0  0
  4 24  2  0  0  0  0
  5  6  2  0  0  0  0
  5 32  1  0  0  0  0
  6  7  1  0  0  0  0
  6  8  1  0  0  0  0
  7 33  1  0  0  0  0
  7 34  1  0  0  0  0
  7 35  1  0  0  0  0
  8  9  2  0  0  0  0
  8 36  1  0  0  0  0
  9 10  1  0  0  0  0
  9 13  1  0  0  0  0
 10 11  1  0  0  0  0
 10 37  1  0  0  0  0
 10 38  1  0  0  0  0
 11 12  2  0  0  0  0
 11 39  1  0  0  0  0
 13 14  2  0  0  0  0
 13 22  1  0  0  0  0
 14 15  1  0  0  0  0
 14 40  1  0  0  0  0
 15 16  1  0  0  0  0
 15 23  2  0  0  0  0
 16 17  1  0  0  0  0
 16 41  1  0  0  0  0
 17 18  1  0  0  0  0
 17 42  1  0  0  0  0
 17 43  1  0  0  0  0
 18 19  1  0  0  0  0
 18 44  1  0  0  0  0
 18 45  1  0  0  0  0
 19 20  1  0  0  0  0
 19 46  1  0  0  0  0
 19 47  1  0  0  0  0
 20 21  1  0  0  0  0
 20 48  1  0  0  0  0
 20 49  1  0  0  0  0
 21 22  1  0  0  0  0
 21 50  1  0  0  0  0
 21 51  1  0  0  0  0
 22 52  1  0  0  0  0
 22 53  1  0  0  0  0
 23 24  1  0  0  0  0
 23 54  1  0  0  0  0
 24 55  1  0  0  0  0
M  END
$$$$
