
 OpenBabel04232216593D

210209  0  0  0  0  0  0  0  0999 V2000
    2.1917    4.8159    1.7233 O   0  0  0  0  0  0  0  0  0  0  0  0
    3.0053    4.2597    2.4620 C   0  0  0  0  0  0  0  0  0  0  0  0
    3.3702    2.8114    2.3472 C   0  0  0  0  0  0  0  0  0  0  0  0
    4.8586    2.6736    2.0974 C   0  0  0  0  0  0  0  0  0  0  0  0
    5.2273    1.1950    1.9693 C   0  0  0  0  0  0  0  0  0  0  0  0
    6.6951    1.0254    1.6853 C   0  0  0  0  0  0  0  0  0  0  0  0
    7.3664    1.6008    2.7789 O   0  0  0  0  0  0  0  0  0  0  0  0
    8.7434    1.5150    2.5813 C   0  0  0  0  0  0  0  0  0  0  0  0
    9.3418    2.1267    3.6824 O   0  0  0  0  0  0  0  0  0  0  0  0
   10.7083    1.9765    3.4121 O   0  0  0  0  0  0  0  0  0  0  0  0
   11.4167    2.5408    4.4683 O   0  0  0  0  0  0  0  0  0  0  0  0
   12.7753    2.4195    4.2176 O   0  0  0  0  0  0  0  0  0  0  0  0
   13.4544    3.0242    5.3065 O   0  0  0  0  0  0  0  0  0  0  0  0
   14.8177    2.8538    5.0576 O   0  0  0  0  0  0  0  0  0  0  0  0
   15.4845    3.4537    6.1222 O   0  0  0  0  0  0  0  0  0  0  0  0
   16.8554    3.3305    5.8533 O   0  0  0  0  0  0  0  0  0  0  0  0
   17.5486    3.8934    6.9281 O   0  0  0  0  0  0  0  0  0  0  0  0
   18.9163    3.7430    6.6617 O   0  0  0  0  0  0  0  0  0  0  0  0
   19.4986    4.3533    7.7652 C   0  0  0  0  0  0  0  0  0  0  0  0
   20.9509    4.2121    7.5073 C   0  0  0  0  0  0  0  0  0  0  0  0
   21.5542    4.8154    8.6078 O   0  0  0  0  0  0  0  0  0  0  0  0
   22.9492    4.6768    8.3607 O   0  0  0  0  0  0  0  0  0  0  0  0
   23.6471    5.2747    9.4488 O   0  0  0  0  0  0  0  0  0  0  0  0
   25.0045    5.0996    9.1295 C   0  0  0  0  0  0  0  0  0  0  0  0
   25.7538    5.7273   10.2713 C   0  0  0  0  0  0  0  0  0  0  0  0
   27.2366    5.5999   10.0355 C   0  0  0  0  0  0  0  0  0  0  0  0
   27.9886    6.2329   11.1869 C   0  0  0  0  0  0  0  0  0  0  0  0
   29.4782    6.1032   10.9467 C   0  0  0  0  0  0  0  0  0  0  0  0
   30.2388    6.7344   12.0951 C   0  0  0  0  0  0  0  0  0  0  0  0
   31.7300    6.6045   11.8547 C   0  0  0  0  0  0  0  0  0  0  0  0
   32.4925    7.2359   13.0031 C   0  0  0  0  0  0  0  0  0  0  0  0
   33.9837    7.1066   12.7637 C   0  0  0  0  0  0  0  0  0  0  0  0
   34.7459    7.7396   13.9113 C   0  0  0  0  0  0  0  0  0  0  0  0
   36.2382    7.6105   13.6720 C   0  0  0  0  0  0  0  0  0  0  0  0
   37.0005    8.2434   14.8196 C   0  0  0  0  0  0  0  0  0  0  0  0
   38.4921    8.1141   14.5799 C   0  0  0  0  0  0  0  0  0  0  0  0
   39.2547    8.7459   15.7288 C   0  0  0  0  0  0  0  0  0  0  0  0
   40.7466    8.6182   15.4880 C   0  0  0  0  0  0  0  0  0  0  0  0
   41.5094    9.2509   16.6361 C   0  0  0  0  0  0  0  0  0  0  0  0
   43.0009    9.1220   16.3965 C   0  0  0  0  0  0  0  0  0  0  0  0
   43.7637    9.7535   17.5449 C   0  0  0  0  0  0  0  0  0  0  0  0
   45.2553    9.6224   17.3065 C   0  0  0  0  0  0  0  0  0  0  0  0
   46.0179   10.2536   18.4551 C   0  0  0  0  0  0  0  0  0  0  0  0
   47.5099   10.1226   18.2168 C   0  0  0  0  0  0  0  0  0  0  0  0
   48.2725   10.7537   19.3654 C   0  0  0  0  0  0  0  0  0  0  0  0
   49.7641   10.6226   19.1269 C   0  0  0  0  0  0  0  0  0  0  0  0
   50.5268   11.2542   20.2755 C   0  0  0  0  0  0  0  0  0  0  0  0
   52.0188   11.1250   20.0363 C   0  0  0  0  0  0  0  0  0  0  0  0
   52.7813   11.7576   21.1838 C   0  0  0  0  0  0  0  0  0  0  0  0
   54.2727   11.6306   20.9431 C   0  0  0  0  0  0  0  0  0  0  0  0
   55.0359   12.2638   22.0910 C   0  0  0  0  0  0  0  0  0  0  0  0
   56.5274   12.1375   21.8495 C   0  0  0  0  0  0  0  0  0  0  0  0
   57.2900   12.7693   22.9983 C   0  0  0  0  0  0  0  0  0  0  0  0
   58.7821   12.6419   22.7575 C   0  0  0  0  0  0  0  0  0  0  0  0
   59.5444   13.2749   23.9055 C   0  0  0  0  0  0  0  0  0  0  0  0
   61.0364   13.1489   23.6640 C   0  0  0  0  0  0  0  0  0  0  0  0
   61.7987   13.7806   24.8125 C   0  0  0  0  0  0  0  0  0  0  0  0
   63.2908   13.6550   24.5713 C   0  0  0  0  0  0  0  0  0  0  0  0
   64.0534   14.2873   25.7191 C   0  0  0  0  0  0  0  0  0  0  0  0
   65.5448   14.1624   25.4777 C   0  0  0  0  0  0  0  0  0  0  0  0
   66.3078   14.7952   26.6249 C   0  0  0  0  0  0  0  0  0  0  0  0
   67.7993   14.6697   26.3842 C   0  0  0  0  0  0  0  0  0  0  0  0
   68.5621   15.3025   27.5311 C   0  0  0  0  0  0  0  0  0  0  0  0
   70.0536   15.1771   27.2903 C   0  0  0  0  0  0  0  0  0  0  0  0
   70.8166   15.8100   28.4375 C   0  0  0  0  0  0  0  0  0  0  0  0
   72.3080   15.6839   28.1967 C   0  0  0  0  0  0  0  0  0  0  0  0
   73.0707   16.3175   29.3437 C   0  0  0  0  0  0  0  0  0  0  0  0
   74.5626   16.1920   29.1028 C   0  0  0  0  0  0  0  0  0  0  0  0
   75.3250   16.8261   30.2492 C   0  0  0  0  0  0  0  0  0  0  0  0
   76.8164   16.7007   30.0079 C   0  0  0  0  0  0  0  0  0  0  0  0
   77.5796   17.3356   31.1544 C   0  0  0  0  0  0  0  0  0  0  0  0
   79.0722   17.2100   30.9135 C   0  0  0  0  0  0  0  0  0  0  0  0
   79.8336   17.8450   32.0602 C   0  0  0  0  0  0  0  0  0  0  0  0
   81.3268   17.7191   31.8186 C   0  0  0  0  0  0  0  0  0  0  0  0
   82.0896   18.3525   32.9667 C   0  0  0  0  0  0  0  0  0  0  0  0
   83.5834   18.2275   32.7269 C   0  0  0  0  0  0  0  0  0  0  0  0
   84.3475   18.8614   33.8759 C   0  0  0  0  0  0  0  0  0  0  0  0
   85.8433   18.7359   33.6390 C   0  0  0  0  0  0  0  0  0  0  0  0
   86.6172   19.3703   34.7848 C   0  0  0  0  0  0  0  0  0  0  0  0
   88.1086   19.2430   34.5450 C   0  0  0  0  0  0  0  0  0  0  0  0
    3.4833    4.8239    3.2768 H   0  0  0  0  0  0  0  0  0  0  0  0
    2.8053    2.3624    1.5264 H   0  0  0  0  0  0  0  0  0  0  0  0
    3.0825    2.3156    3.2796 H   0  0  0  0  0  0  0  0  0  0  0  0
    5.4144    3.1504    2.9151 H   0  0  0  0  0  0  0  0  0  0  0  0
    5.1421    3.2087    1.1819 H   0  0  0  0  0  0  0  0  0  0  0  0
    4.6627    0.7215    1.1622 H   0  0  0  0  0  0  0  0  0  0  0  0
    4.9796    0.6873    2.9104 H   0  0  0  0  0  0  0  0  0  0  0  0
    6.9881    1.5422    0.7657 H   0  0  0  0  0  0  0  0  0  0  0  0
    6.9676   -0.0310    1.6207 H   0  0  0  0  0  0  0  0  0  0  0  0
    9.0596    2.0441    1.6723 H   0  0  0  0  0  0  0  0  0  0  0  0
    9.0730    0.4691    2.5345 H   0  0  0  0  0  0  0  0  0  0  0  0
   19.1912    3.8479    8.6882 H   0  0  0  0  0  0  0  0  0  0  0  0
   19.1905    5.4035    7.8310 H   0  0  0  0  0  0  0  0  0  0  0  0
   21.2225    4.7090    6.5670 H   0  0  0  0  0  0  0  0  0  0  0  0
   21.2224    3.1521    7.4203 H   0  0  0  0  0  0  0  0  0  0  0  0
   25.2284    5.5973    8.1787 H   0  0  0  0  0  0  0  0  0  0  0  0
   25.2287    4.0303    9.0400 H   0  0  0  0  0  0  0  0  0  0  0  0
   25.4610    5.2448   11.2131 H   0  0  0  0  0  0  0  0  0  0  0  0
   25.4590    6.7803   10.3704 H   0  0  0  0  0  0  0  0  0  0  0  0
   27.5068    6.0908    9.0926 H   0  0  0  0  0  0  0  0  0  0  0  0
   27.5089    4.5415    9.9428 H   0  0  0  0  0  0  0  0  0  0  0  0
   27.7140    5.7422   12.1291 H   0  0  0  0  0  0  0  0  0  0  0  0
   27.7119    7.2906   11.2793 H   0  0  0  0  0  0  0  0  0  0  0  0
   29.7484    6.5931   10.0032 H   0  0  0  0  0  0  0  0  0  0  0  0
   29.7506    5.0447   10.8529 H   0  0  0  0  0  0  0  0  0  0  0  0
   29.9670    6.2441   13.0382 H   0  0  0  0  0  0  0  0  0  0  0  0
   29.9649    7.7926   12.1883 H   0  0  0  0  0  0  0  0  0  0  0  0
   32.0008    7.0946   10.9113 H   0  0  0  0  0  0  0  0  0  0  0  0
   32.0030    5.5461   11.7611 H   0  0  0  0  0  0  0  0  0  0  0  0
   32.2207    6.7459   13.9465 H   0  0  0  0  0  0  0  0  0  0  0  0
   32.2184    8.2943   13.0967 H   0  0  0  0  0  0  0  0  0  0  0  0
   34.2547    7.5955   11.8196 H   0  0  0  0  0  0  0  0  0  0  0  0
   34.2572    6.0481   12.6714 H   0  0  0  0  0  0  0  0  0  0  0  0
   34.4751    7.2508   14.8553 H   0  0  0  0  0  0  0  0  0  0  0  0
   34.4725    8.7981   14.0035 H   0  0  0  0  0  0  0  0  0  0  0  0
   36.5090    8.0992   12.7278 H   0  0  0  0  0  0  0  0  0  0  0  0
   36.5118    6.5518   13.5794 H   0  0  0  0  0  0  0  0  0  0  0  0
   36.7293    7.7546   15.7636 H   0  0  0  0  0  0  0  0  0  0  0  0
   36.7266    9.3019   14.9120 H   0  0  0  0  0  0  0  0  0  0  0  0
   38.7634    8.6039   13.6365 H   0  0  0  0  0  0  0  0  0  0  0  0
   38.7658    7.0559   14.4866 H   0  0  0  0  0  0  0  0  0  0  0  0
   38.9845    8.2550   16.6717 H   0  0  0  0  0  0  0  0  0  0  0  0
   38.9803    9.8038   15.8230 H   0  0  0  0  0  0  0  0  0  0  0  0
   41.0169    9.1078   14.5443 H   0  0  0  0  0  0  0  0  0  0  0  0
   41.0214    7.5601   15.3948 H   0  0  0  0  0  0  0  0  0  0  0  0
   41.2381    8.7624   17.5800 H   0  0  0  0  0  0  0  0  0  0  0  0
   41.2353   10.3098   16.7288 H   0  0  0  0  0  0  0  0  0  0  0  0
   43.2724    9.6117   15.4527 H   0  0  0  0  0  0  0  0  0  0  0  0
   43.2746    8.0635   16.3024 H   0  0  0  0  0  0  0  0  0  0  0  0
   43.4912    9.2644   18.4887 H   0  0  0  0  0  0  0  0  0  0  0  0
   43.4909   10.8121   17.6381 H   0  0  0  0  0  0  0  0  0  0  0  0
   45.5280   10.1111   16.3628 H   0  0  0  0  0  0  0  0  0  0  0  0
   45.5279    8.5636   17.2136 H   0  0  0  0  0  0  0  0  0  0  0  0
   45.7455    9.7647   19.3988 H   0  0  0  0  0  0  0  0  0  0  0  0
   45.7456   11.3125   18.5484 H   0  0  0  0  0  0  0  0  0  0  0  0
   47.7824   10.6114   17.2731 H   0  0  0  0  0  0  0  0  0  0  0  0
   47.7823    9.0637   18.1235 H   0  0  0  0  0  0  0  0  0  0  0  0
   47.9998   10.2650   20.3091 H   0  0  0  0  0  0  0  0  0  0  0  0
   48.0000   11.8125   19.4583 H   0  0  0  0  0  0  0  0  0  0  0  0
   50.0367   11.1117   18.1834 H   0  0  0  0  0  0  0  0  0  0  0  0
   50.0369    9.5640   19.0339 H   0  0  0  0  0  0  0  0  0  0  0  0
   50.2553   10.7646   21.2193 H   0  0  0  0  0  0  0  0  0  0  0  0
   50.2534   12.3125   20.3692 H   0  0  0  0  0  0  0  0  0  0  0  0
   52.2897   11.6135   19.0920 H   0  0  0  0  0  0  0  0  0  0  0  0
   52.2926   10.0663   19.9434 H   0  0  0  0  0  0  0  0  0  0  0  0
   52.5111   11.2684   22.1279 H   0  0  0  0  0  0  0  0  0  0  0  0
   52.5064   12.8161   21.2772 H   0  0  0  0  0  0  0  0  0  0  0  0
   54.5430   12.1202   19.9995 H   0  0  0  0  0  0  0  0  0  0  0  0
   54.5480   10.5722   20.8496 H   0  0  0  0  0  0  0  0  0  0  0  0
   54.7664   11.7733   23.0349 H   0  0  0  0  0  0  0  0  0  0  0  0
   54.7600   13.3213   22.1849 H   0  0  0  0  0  0  0  0  0  0  0  0
   56.7966   12.6294   20.9066 H   0  0  0  0  0  0  0  0  0  0  0  0
   56.8031   11.0800   21.7542 H   0  0  0  0  0  0  0  0  0  0  0  0
   57.0201   12.2784   23.9414 H   0  0  0  0  0  0  0  0  0  0  0  0
   57.0153   13.8271   23.0927 H   0  0  0  0  0  0  0  0  0  0  0  0
   59.0518   13.1318   21.8138 H   0  0  0  0  0  0  0  0  0  0  0  0
   59.0568   11.5839   22.6642 H   0  0  0  0  0  0  0  0  0  0  0  0
   59.2754   12.7840   24.8489 H   0  0  0  0  0  0  0  0  0  0  0  0
   59.2687   14.3325   23.9998 H   0  0  0  0  0  0  0  0  0  0  0  0
   61.3055   13.6407   22.7211 H   0  0  0  0  0  0  0  0  0  0  0  0
   61.3119   12.0913   23.5688 H   0  0  0  0  0  0  0  0  0  0  0  0
   61.5295   13.2891   25.7560 H   0  0  0  0  0  0  0  0  0  0  0  0
   61.5233   14.8382   24.9078 H   0  0  0  0  0  0  0  0  0  0  0  0
   63.5597   14.1453   23.6276 H   0  0  0  0  0  0  0  0  0  0  0  0
   63.5667   12.5969   24.4769 H   0  0  0  0  0  0  0  0  0  0  0  0
   63.7842   13.7973   26.6628 H   0  0  0  0  0  0  0  0  0  0  0  0
   63.7772   15.3457   25.8135 H   0  0  0  0  0  0  0  0  0  0  0  0
   65.8141   14.6526   24.5338 H   0  0  0  0  0  0  0  0  0  0  0  0
   65.8211   13.1042   25.3829 H   0  0  0  0  0  0  0  0  0  0  0  0
   66.0385   14.3049   27.5694 H   0  0  0  0  0  0  0  0  0  0  0  0
   66.0316   15.8530   26.7197 H   0  0  0  0  0  0  0  0  0  0  0  0
   68.0686   15.1598   25.4398 H   0  0  0  0  0  0  0  0  0  0  0  0
   68.0755   13.6116   26.2894 H   0  0  0  0  0  0  0  0  0  0  0  0
   68.2928   14.8122   28.4756 H   0  0  0  0  0  0  0  0  0  0  0  0
   68.2860   16.3604   27.6261 H   0  0  0  0  0  0  0  0  0  0  0  0
   70.3229   15.6671   26.3462 H   0  0  0  0  0  0  0  0  0  0  0  0
   70.3298   14.1189   27.1956 H   0  0  0  0  0  0  0  0  0  0  0  0
   70.5472   15.3196   29.3819 H   0  0  0  0  0  0  0  0  0  0  0  0
   70.5404   16.8676   28.5320 H   0  0  0  0  0  0  0  0  0  0  0  0
   72.5773   16.1745   27.2524 H   0  0  0  0  0  0  0  0  0  0  0  0
   72.5842   14.6264   28.1020 H   0  0  0  0  0  0  0  0  0  0  0  0
   72.8015   15.8270   30.2881 H   0  0  0  0  0  0  0  0  0  0  0  0
   72.7947   17.3750   29.4383 H   0  0  0  0  0  0  0  0  0  0  0  0
   74.8313   16.6808   28.1581 H   0  0  0  0  0  0  0  0  0  0  0  0
   74.8387   15.1336   29.0095 H   0  0  0  0  0  0  0  0  0  0  0  0
   75.0562   16.3371   31.1939 H   0  0  0  0  0  0  0  0  0  0  0  0
   75.0487   17.8843   30.3422 H   0  0  0  0  0  0  0  0  0  0  0  0
   77.0855   17.1899   29.0632 H   0  0  0  0  0  0  0  0  0  0  0  0
   77.0929   15.6427   29.9150 H   0  0  0  0  0  0  0  0  0  0  0  0
   77.3106   16.8464   32.0992 H   0  0  0  0  0  0  0  0  0  0  0  0
   77.3033   18.3934   31.2473 H   0  0  0  0  0  0  0  0  0  0  0  0
   79.3400   17.6993   29.9688 H   0  0  0  0  0  0  0  0  0  0  0  0
   79.3474   16.1521   30.8206 H   0  0  0  0  0  0  0  0  0  0  0  0
   79.5656   17.3552   33.0041 H   0  0  0  0  0  0  0  0  0  0  0  0
   79.5583   18.9025   32.1525 H   0  0  0  0  0  0  0  0  0  0  0  0
   81.5951   18.2097   30.8751 H   0  0  0  0  0  0  0  0  0  0  0  0
   81.6021   16.6613   31.7249 H   0  0  0  0  0  0  0  0  0  0  0  0
   81.8202   17.8617   33.9101 H   0  0  0  0  0  0  0  0  0  0  0  0
   81.8133   19.4100   33.0604 H   0  0  0  0  0  0  0  0  0  0  0  0
   83.8512   18.7177   31.7828 H   0  0  0  0  0  0  0  0  0  0  0  0
   83.8579   17.1696   32.6323 H   0  0  0  0  0  0  0  0  0  0  0  0
   84.0756   18.3710   34.8185 H   0  0  0  0  0  0  0  0  0  0  0  0
   84.0706   19.9187   33.9677 H   0  0  0  0  0  0  0  0  0  0  0  0
   86.1095   19.2228   32.6926 H   0  0  0  0  0  0  0  0  0  0  0  0
   86.1147   17.6770   33.5449 H   0  0  0  0  0  0  0  0  0  0  0  0
   86.3521   18.8822   35.7301 H   0  0  0  0  0  0  0  0  0  0  0  0
   86.3469   20.4287   34.8772 H   0  0  0  0  0  0  0  0  0  0  0  0
   88.3988   18.1901   34.4708 H   0  0  0  0  0  0  0  0  0  0  0  0
   88.6653   19.6985   35.3676 H   0  0  0  0  0  0  0  0  0  0  0  0
   88.3936   19.7436   33.6141 H   0  0  0  0  0  0  0  0  0  0  0  0
  1  2  2  0  0  0  0
  2  3  1  0  0  0  0
  2 81  1  0  0  0  0
  3  4  1  0  0  0  0
  3 82  1  0  0  0  0
  3 83  1  0  0  0  0
  4  5  1  0  0  0  0
  4 84  1  0  0  0  0
  4 85  1  0  0  0  0
  5  6  1  0  0  0  0
  5 86  1  0  0  0  0
  5 87  1  0  0  0  0
  6  7  1  0  0  0  0
  6 88  1  0  0  0  0
  6 89  1  0  0  0  0
  7  8  1  0  0  0  0
  8  9  1  0  0  0  0
  8 90  1  0  0  0  0
  8 91  1  0  0  0  0
  9 10  1  0  0  0  0
 10 11  1  0  0  0  0
 11 12  1  0  0  0  0
 12 13  1  0  0  0  0
 13 14  1  0  0  0  0
 14 15  1  0  0  0  0
 15 16  1  0  0  0  0
 16 17  1  0  0  0  0
 17 18  1  0  0  0  0
 18 19  1  0  0  0  0
 19 20  1  0  0  0  0
 19 92  1  0  0  0  0
 19 93  1  0  0  0  0
 20 21  1  0  0  0  0
 20 94  1  0  0  0  0
 20 95  1  0  0  0  0
 21 22  1  0  0  0  0
 22 23  1  0  0  0  0
 23 24  1  0  0  0  0
 24 25  1  0  0  0  0
 24 96  1  0  0  0  0
 24 97  1  0  0  0  0
 25 26  1  0  0  0  0
 25 98  1  0  0  0  0
 25 99  1  0  0  0  0
 26 27  1  0  0  0  0
 26100  1  0  0  0  0
 26101  1  0  0  0  0
 27 28  1  0  0  0  0
 27102  1  0  0  0  0
 27103  1  0  0  0  0
 28 29  1  0  0  0  0
 28104  1  0  0  0  0
 28105  1  0  0  0  0
 29 30  1  0  0  0  0
 29106  1  0  0  0  0
 29107  1  0  0  0  0
 30 31  1  0  0  0  0
 30108  1  0  0  0  0
 30109  1  0  0  0  0
 31 32  1  0  0  0  0
 31110  1  0  0  0  0
 31111  1  0  0  0  0
 32 33  1  0  0  0  0
 32112  1  0  0  0  0
 32113  1  0  0  0  0
 33 34  1  0  0  0  0
 33114  1  0  0  0  0
 33115  1  0  0  0  0
 34 35  1  0  0  0  0
 34116  1  0  0  0  0
 34117  1  0  0  0  0
 35 36  1  0  0  0  0
 35118  1  0  0  0  0
 35119  1  0  0  0  0
 36 37  1  0  0  0  0
 36120  1  0  0  0  0
 36121  1  0  0  0  0
 37 38  1  0  0  0  0
 37122  1  0  0  0  0
 37123  1  0  0  0  0
 38 39  1  0  0  0  0
 38124  1  0  0  0  0
 38125  1  0  0  0  0
 39 40  1  0  0  0  0
 39126  1  0  0  0  0
 39127  1  0  0  0  0
 40 41  1  0  0  0  0
 40128  1  0  0  0  0
 40129  1  0  0  0  0
 41 42  1  0  0  0  0
 41130  1  0  0  0  0
 41131  1  0  0  0  0
 42 43  1  0  0  0  0
 42132  1  0  0  0  0
 42133  1  0  0  0  0
 43 44  1  0  0  0  0
 43134  1  0  0  0  0
 43135  1  0  0  0  0
 44 45  1  0  0  0  0
 44136  1  0  0  0  0
 44137  1  0  0  0  0
 45 46  1  0  0  0  0
 45138  1  0  0  0  0
 45139  1  0  0  0  0
 46 47  1  0  0  0  0
 46140  1  0  0  0  0
 46141  1  0  0  0  0
 47 48  1  0  0  0  0
 47142  1  0  0  0  0
 47143  1  0  0  0  0
 48 49  1  0  0  0  0
 48144  1  0  0  0  0
 48145  1  0  0  0  0
 49 50  1  0  0  0  0
 49146  1  0  0  0  0
 49147  1  0  0  0  0
 50 51  1  0  0  0  0
 50148  1  0  0  0  0
 50149  1  0  0  0  0
 51 52  1  0  0  0  0
 51150  1  0  0  0  0
 51151  1  0  0  0  0
 52 53  1  0  0  0  0
 52152  1  0  0  0  0
 52153  1  0  0  0  0
 53 54  1  0  0  0  0
 53154  1  0  0  0  0
 53155  1  0  0  0  0
 54 55  1  0  0  0  0
 54156  1  0  0  0  0
 54157  1  0  0  0  0
 55 56  1  0  0  0  0
 55158  1  0  0  0  0
 55159  1  0  0  0  0
 56 57  1  0  0  0  0
 56160  1  0  0  0  0
 56161  1  0  0  0  0
 57 58  1  0  0  0  0
 57162  1  0  0  0  0
 57163  1  0  0  0  0
 58 59  1  0  0  0  0
 58164  1  0  0  0  0
 58165  1  0  0  0  0
 59 60  1  0  0  0  0
 59166  1  0  0  0  0
 59167  1  0  0  0  0
 60 61  1  0  0  0  0
 60168  1  0  0  0  0
 60169  1  0  0  0  0
 61 62  1  0  0  0  0
 61170  1  0  0  0  0
 61171  1  0  0  0  0
 62 63  1  0  0  0  0
 62172  1  0  0  0  0
 62173  1  0  0  0  0
 63 64  1  0  0  0  0
 63174  1  0  0  0  0
 63175  1  0  0  0  0
 64 65  1  0  0  0  0
 64176  1  0  0  0  0
 64177  1  0  0  0  0
 65 66  1  0  0  0  0
 65178  1  0  0  0  0
 65179  1  0  0  0  0
 66 67  1  0  0  0  0
 66180  1  0  0  0  0
 66181  1  0  0  0  0
 67 68  1  0  0  0  0
 67182  1  0  0  0  0
 67183  1  0  0  0  0
 68 69  1  0  0  0  0
 68184  1  0  0  0  0
 68185  1  0  0  0  0
 69 70  1  0  0  0  0
 69186  1  0  0  0  0
 69187  1  0  0  0  0
 70 71  1  0  0  0  0
 70188  1  0  0  0  0
 70189  1  0  0  0  0
 71 72  1  0  0  0  0
 71190  1  0  0  0  0
 71191  1  0  0  0  0
 72 73  1  0  0  0  0
 72192  1  0  0  0  0
 72193  1  0  0  0  0
 73 74  1  0  0  0  0
 73194  1  0  0  0  0
 73195  1  0  0  0  0
 74 75  1  0  0  0  0
 74196  1  0  0  0  0
 74197  1  0  0  0  0
 75 76  1  0  0  0  0
 75198  1  0  0  0  0
 75199  1  0  0  0  0
 76 77  1  0  0  0  0
 76200  1  0  0  0  0
 76201  1  0  0  0  0
 77 78  1  0  0  0  0
 77202  1  0  0  0  0
 77203  1  0  0  0  0
 78 79  1  0  0  0  0
 78204  1  0  0  0  0
 78205  1  0  0  0  0
 79 80  1  0  0  0  0
 79206  1  0  0  0  0
 79207  1  0  0  0  0
 80208  1  0  0  0  0
 80209  1  0  0  0  0
 80210  1  0  0  0  0
M  END
$$$$
