
 OpenBabel04232216413D

210209  0  0  0  0  0  0  0  0999 V2000
   17.3292   15.3768   -7.7902 C   0  0  0  0  0  0  0  0  0  0  0  0
   18.1436   14.3111   -7.8845 C   0  0  0  0  0  0  0  0  0  0  0  0
   19.0008   14.0417   -9.0882 C   0  0  0  0  0  0  0  0  0  0  0  0
   18.6525   12.7452   -9.6669 N   0  0  0  0  0  0  0  0  0  0  0  0
   19.4842   12.5102  -10.8176 N   0  0  0  0  0  0  0  0  0  0  0  0
   19.1640   11.2701  -11.4084 N   0  0  0  0  0  0  0  0  0  0  0  0
   20.0001   11.0291  -12.5293 N   0  0  0  0  0  0  0  0  0  0  0  0
   21.3652   11.0549  -12.1560 N   0  0  0  0  0  0  0  0  0  0  0  0
   21.5764   10.0397  -11.1828 N   0  0  0  0  0  0  0  0  0  0  0  0
   21.2437    8.7518  -11.7417 N   0  0  0  0  0  0  0  0  0  0  0  0
   22.0324    8.5334  -12.9042 N   0  0  0  0  0  0  0  0  0  0  0  0
   23.4377    8.5283  -12.5227 N   0  0  0  0  0  0  0  0  0  0  0  0
   23.7037    7.5106  -11.5235 N   0  0  0  0  0  0  0  0  0  0  0  0
   23.3928    6.2048  -12.0416 N   0  0  0  0  0  0  0  0  0  0  0  0
   24.1560    5.9639  -13.2030 N   0  0  0  0  0  0  0  0  0  0  0  0
   25.5303    6.0162  -12.8565 N   0  0  0  0  0  0  0  0  0  0  0  0
   25.8407    5.0389  -11.8441 N   0  0  0  0  0  0  0  0  0  0  0  0
   25.5129    3.7130  -12.3238 N   0  0  0  0  0  0  0  0  0  0  0  0
   26.2710    3.4614  -13.5038 N   0  0  0  0  0  0  0  0  0  0  0  0
   27.6713    3.5131  -13.1677 N   0  0  0  0  0  0  0  0  0  0  0  0
   27.9780    2.5685  -12.1329 N   0  0  0  0  0  0  0  0  0  0  0  0
   27.6575    1.2466  -12.5769 N   0  0  0  0  0  0  0  0  0  0  0  0
   28.4061    0.9600  -13.7660 N   0  0  0  0  0  0  0  0  0  0  0  0
   29.8176    1.0563  -13.4607 N   0  0  0  0  0  0  0  0  0  0  0  0
   30.1365    0.1427  -12.4022 N   0  0  0  0  0  0  0  0  0  0  0  0
   29.8493   -1.2034  -12.8348 N   0  0  0  0  0  0  0  0  0  0  0  0
   30.5996   -1.5242  -14.0157 N   0  0  0  0  0  0  0  0  0  0  0  0
   31.9889   -1.4354  -13.7457 N   0  0  0  0  0  0  0  0  0  0  0  0
   32.3289   -2.3374  -12.7029 N   0  0  0  0  0  0  0  0  0  0  0  0
   31.9963   -3.7038  -13.1184 C   0  0  0  0  0  0  0  0  0  0  0  0
   32.7294   -4.0968  -14.3244 N   0  0  0  0  0  0  0  0  0  0  0  0
   34.1545   -3.9774  -14.0548 C   0  0  0  0  0  0  0  0  0  0  0  0
   34.8823   -4.3189  -15.2554 N   0  0  0  0  0  0  0  0  0  0  0  0
   36.3198   -4.2537  -15.0131 C   0  0  0  0  0  0  0  0  0  0  0  0
   37.0385   -4.5992  -16.2303 N   0  0  0  0  0  0  0  0  0  0  0  0
   38.4906   -4.5418  -15.9807 C   0  0  0  0  0  0  0  0  0  0  0  0
   39.2320   -4.9025  -17.1859 N   0  0  0  0  0  0  0  0  0  0  0  0
   40.6744   -4.8239  -16.9379 C   0  0  0  0  0  0  0  0  0  0  0  0
   41.4465   -5.1916  -18.1972 C   0  0  0  0  0  0  0  0  0  0  0  0
   42.9452   -5.1153  -17.9388 C   0  0  0  0  0  0  0  0  0  0  0  0
   43.7131   -5.4799  -19.1968 C   0  0  0  0  0  0  0  0  0  0  0  0
   45.2058   -5.4046  -18.9369 C   0  0  0  0  0  0  0  0  0  0  0  0
   45.9696   -5.7692  -20.1952 C   0  0  0  0  0  0  0  0  0  0  0  0
   47.4612   -5.6938  -19.9348 C   0  0  0  0  0  0  0  0  0  0  0  0
   48.2243   -6.0584  -21.1929 C   0  0  0  0  0  0  0  0  0  0  0  0
   49.7158   -5.9829  -20.9325 C   0  0  0  0  0  0  0  0  0  0  0  0
   50.4788   -6.3475  -22.1905 C   0  0  0  0  0  0  0  0  0  0  0  0
   51.9702   -6.2740  -21.9295 C   0  0  0  0  0  0  0  0  0  0  0  0
   52.7332   -6.6405  -23.1869 C   0  0  0  0  0  0  0  0  0  0  0  0
   54.2246   -6.5689  -22.9253 C   0  0  0  0  0  0  0  0  0  0  0  0
   54.9876   -6.9354  -24.1828 C   0  0  0  0  0  0  0  0  0  0  0  0
   56.4790   -6.8619  -23.9218 C   0  0  0  0  0  0  0  0  0  0  0  0
   57.2420   -7.2265  -25.1798 C   0  0  0  0  0  0  0  0  0  0  0  0
   58.7334   -7.1549  -24.9182 C   0  0  0  0  0  0  0  0  0  0  0  0
   59.4964   -7.5214  -26.1757 C   0  0  0  0  0  0  0  0  0  0  0  0
   60.9878   -7.4479  -25.9146 C   0  0  0  0  0  0  0  0  0  0  0  0
   61.7508   -7.8125  -27.1726 C   0  0  0  0  0  0  0  0  0  0  0  0
   63.2422   -7.7389  -26.9116 C   0  0  0  0  0  0  0  0  0  0  0  0
   64.0052   -8.1016  -28.1702 C   0  0  0  0  0  0  0  0  0  0  0  0
   65.4966   -8.0281  -27.9092 C   0  0  0  0  0  0  0  0  0  0  0  0
   66.2596   -8.3907  -29.1678 C   0  0  0  0  0  0  0  0  0  0  0  0
   67.7510   -8.3172  -28.9067 C   0  0  0  0  0  0  0  0  0  0  0  0
   68.5140   -8.6799  -30.1653 C   0  0  0  0  0  0  0  0  0  0  0  0
   70.0054   -8.6063  -29.9043 C   0  0  0  0  0  0  0  0  0  0  0  0
   70.7684   -8.9690  -31.1629 C   0  0  0  0  0  0  0  0  0  0  0  0
   72.2598   -8.8954  -30.9018 C   0  0  0  0  0  0  0  0  0  0  0  0
   73.0228   -9.2581  -32.1604 C   0  0  0  0  0  0  0  0  0  0  0  0
   74.5142   -9.1846  -31.8994 C   0  0  0  0  0  0  0  0  0  0  0  0
   75.2772   -9.5492  -33.1574 C   0  0  0  0  0  0  0  0  0  0  0  0
   76.7686   -9.4756  -32.8964 C   0  0  0  0  0  0  0  0  0  0  0  0
   77.5316   -9.8402  -34.1544 C   0  0  0  0  0  0  0  0  0  0  0  0
   79.0230   -9.7667  -33.8934 C   0  0  0  0  0  0  0  0  0  0  0  0
   79.7860  -10.1313  -35.1514 C   0  0  0  0  0  0  0  0  0  0  0  0
   81.2774  -10.0577  -34.8904 C   0  0  0  0  0  0  0  0  0  0  0  0
   82.0405  -10.4243  -36.1478 C   0  0  0  0  0  0  0  0  0  0  0  0
   83.5320  -10.3508  -35.8870 C   0  0  0  0  0  0  0  0  0  0  0  0
   84.2952  -10.7175  -37.1450 C   0  0  0  0  0  0  0  0  0  0  0  0
   85.7876  -10.6424  -36.8860 C   0  0  0  0  0  0  0  0  0  0  0  0
   86.5556  -11.0071  -38.1442 C   0  0  0  0  0  0  0  0  0  0  0  0
   88.0437  -10.9310  -37.8817 C   0  0  0  0  0  0  0  0  0  0  0  0
   16.7192   15.5373   -6.9129 H   0  0  0  0  0  0  0  0  0  0  0  0
   17.2620   16.0701   -8.6200 H   0  0  0  0  0  0  0  0  0  0  0  0
   18.2009   13.6183   -7.0484 H   0  0  0  0  0  0  0  0  0  0  0  0
   20.0532   14.0572   -8.7780 H   0  0  0  0  0  0  0  0  0  0  0  0
   18.8494   14.8387   -9.8264 H   0  0  0  0  0  0  0  0  0  0  0  0
   17.6607   12.7953   -9.9215 H   0  0  0  0  0  0  0  0  0  0  0  0
   20.4667   12.4984  -10.5389 H   0  0  0  0  0  0  0  0  0  0  0  0
   18.1960   11.2409  -11.7166 H   0  0  0  0  0  0  0  0  0  0  0  0
   19.8372   11.7640  -13.2122 H   0  0  0  0  0  0  0  0  0  0  0  0
   21.5613   11.9726  -11.7452 H   0  0  0  0  0  0  0  0  0  0  0  0
   20.9593   10.2035  -10.3939 H   0  0  0  0  0  0  0  0  0  0  0  0
   20.2735    8.7797  -12.0434 H   0  0  0  0  0  0  0  0  0  0  0  0
   21.8228    9.2754  -13.5934 H   0  0  0  0  0  0  0  0  0  0  0  0
   23.6720    9.4618  -12.1385 H   0  0  0  0  0  0  0  0  0  0  0  0
   23.1361    7.6609  -10.6894 H   0  0  0  0  0  0  0  0  0  0  0  0
   22.4118    6.1868  -12.2994 H   0  0  0  0  0  0  0  0  0  0  0  0
   23.9712    6.6814  -13.9019 H   0  0  0  0  0  0  0  0  0  0  0  0
   25.7642    6.9368  -12.4899 H   0  0  0  0  0  0  0  0  0  0  0  0
   25.2619    5.2368  -11.0287 H   0  0  0  0  0  0  0  0  0  0  0  0
   24.5039    3.7359  -12.5437 H   0  0  0  0  0  0  0  0  0  0  0  0
   26.0829    4.1691  -14.2196 H   0  0  0  0  0  0  0  0  0  0  0  0
   27.8940    4.4471  -12.8178 H   0  0  0  0  0  0  0  0  0  0  0  0
   27.4031    2.7842  -11.3228 H   0  0  0  0  0  0  0  0  0  0  0  0
   26.6652    1.2396  -12.8112 H   0  0  0  0  0  0  0  0  0  0  0  0
   28.1353    1.6570  -14.4775 H   0  0  0  0  0  0  0  0  0  0  0  0
   30.0124    2.0293  -13.1643 H   0  0  0  0  0  0  0  0  0  0  0  0
   29.6062    0.3458  -11.5414 H   0  0  0  0  0  0  0  0  0  0  0  0
   28.8571   -1.3141  -13.0446 H   0  0  0  0  0  0  0  0  0  0  0  0
   30.3880   -0.8844  -14.7750 H   0  0  0  0  0  0  0  0  0  0  0  0
   32.2247   -0.4869  -13.4647 H   0  0  0  0  0  0  0  0  0  0  0  0
   31.7998   -2.1113  -11.8604 H   0  0  0  0  0  0  0  0  0  0  0  0
   30.9155   -3.7950  -13.2971 H   0  0  0  0  0  0  0  0  0  0  0  0
   32.2122   -4.3953  -12.2967 H   0  0  0  0  0  0  0  0  0  0  0  0
   32.5000   -3.4005  -15.0302 H   0  0  0  0  0  0  0  0  0  0  0  0
   34.4157   -4.6801  -13.2583 H   0  0  0  0  0  0  0  0  0  0  0  0
   34.4394   -2.9680  -13.7371 H   0  0  0  0  0  0  0  0  0  0  0  0
   34.6807   -3.6731  -16.0097 H   0  0  0  0  0  0  0  0  0  0  0  0
   36.5929   -4.9570  -14.2158 H   0  0  0  0  0  0  0  0  0  0  0  0
   36.6064   -3.2424  -14.7056 H   0  0  0  0  0  0  0  0  0  0  0  0
   36.8001   -3.9608  -16.9844 H   0  0  0  0  0  0  0  0  0  0  0  0
   38.7698   -5.2384  -15.1808 H   0  0  0  0  0  0  0  0  0  0  0  0
   38.7711   -3.5273  -15.6726 H   0  0  0  0  0  0  0  0  0  0  0  0
   38.9552   -4.2424  -17.9083 H   0  0  0  0  0  0  0  0  0  0  0  0
   40.9544   -5.5202  -16.1372 H   0  0  0  0  0  0  0  0  0  0  0  0
   40.9620   -3.8126  -16.6247 H   0  0  0  0  0  0  0  0  0  0  0  0
   41.1851   -4.5066  -19.0127 H   0  0  0  0  0  0  0  0  0  0  0  0
   41.1858   -6.2085  -18.5155 H   0  0  0  0  0  0  0  0  0  0  0  0
   43.2210   -5.8014  -17.1286 H   0  0  0  0  0  0  0  0  0  0  0  0
   43.2190   -4.1012  -17.6228 H   0  0  0  0  0  0  0  0  0  0  0  0
   43.4442   -4.7930  -20.0083 H   0  0  0  0  0  0  0  0  0  0  0  0
   43.4443   -6.4943  -19.5152 H   0  0  0  0  0  0  0  0  0  0  0  0
   45.4772   -6.0918  -18.1265 H   0  0  0  0  0  0  0  0  0  0  0  0
   45.4772   -4.3905  -18.6196 H   0  0  0  0  0  0  0  0  0  0  0  0
   45.6993   -5.0822  -21.0061 H   0  0  0  0  0  0  0  0  0  0  0  0
   45.6993   -6.7834  -20.5130 H   0  0  0  0  0  0  0  0  0  0  0  0
   47.7320   -6.3809  -19.1242 H   0  0  0  0  0  0  0  0  0  0  0  0
   47.7320   -4.6796  -19.6172 H   0  0  0  0  0  0  0  0  0  0  0  0
   47.9538   -5.3713  -22.0037 H   0  0  0  0  0  0  0  0  0  0  0  0
   47.9538   -7.0726  -21.5106 H   0  0  0  0  0  0  0  0  0  0  0  0
   49.9864   -6.6701  -20.1217 H   0  0  0  0  0  0  0  0  0  0  0  0
   49.9864   -4.9688  -20.6148 H   0  0  0  0  0  0  0  0  0  0  0  0
   50.2093   -5.6596  -23.0008 H   0  0  0  0  0  0  0  0  0  0  0  0
   50.2071   -7.3612  -22.5089 H   0  0  0  0  0  0  0  0  0  0  0  0
   52.2395   -6.9610  -21.1182 H   0  0  0  0  0  0  0  0  0  0  0  0
   52.2421   -5.2600  -21.6124 H   0  0  0  0  0  0  0  0  0  0  0  0
   52.4649   -5.9527  -23.9978 H   0  0  0  0  0  0  0  0  0  0  0  0
   52.4602   -7.6540  -23.5048 H   0  0  0  0  0  0  0  0  0  0  0  0
   54.4929   -7.2568  -22.1144 H   0  0  0  0  0  0  0  0  0  0  0  0
   54.4976   -5.5555  -22.6074 H   0  0  0  0  0  0  0  0  0  0  0  0
   54.7183   -6.2485  -24.9941 H   0  0  0  0  0  0  0  0  0  0  0  0
   54.7157   -7.9494  -24.4999 H   0  0  0  0  0  0  0  0  0  0  0  0
   56.7485   -7.5499  -23.1114 H   0  0  0  0  0  0  0  0  0  0  0  0
   56.7507   -5.8483  -23.6033 H   0  0  0  0  0  0  0  0  0  0  0  0
   56.9735   -6.5376  -25.9897 H   0  0  0  0  0  0  0  0  0  0  0  0
   56.9692   -8.2396  -25.4990 H   0  0  0  0  0  0  0  0  0  0  0  0
   59.0017   -7.8427  -24.1073 H   0  0  0  0  0  0  0  0  0  0  0  0
   59.0063   -6.1414  -24.6003 H   0  0  0  0  0  0  0  0  0  0  0  0
   59.2271   -6.8345  -26.9870 H   0  0  0  0  0  0  0  0  0  0  0  0
   59.2245   -8.5354  -26.4927 H   0  0  0  0  0  0  0  0  0  0  0  0
   61.2573   -8.1359  -25.1043 H   0  0  0  0  0  0  0  0  0  0  0  0
   61.2595   -6.4343  -25.5962 H   0  0  0  0  0  0  0  0  0  0  0  0
   61.4813   -7.1245  -27.9830 H   0  0  0  0  0  0  0  0  0  0  0  0
   61.4791   -8.8261  -27.4911 H   0  0  0  0  0  0  0  0  0  0  0  0
   63.5119   -8.4280  -26.1022 H   0  0  0  0  0  0  0  0  0  0  0  0
   63.5137   -6.7257  -26.5918 H   0  0  0  0  0  0  0  0  0  0  0  0
   63.7355   -7.4125  -28.9796 H   0  0  0  0  0  0  0  0  0  0  0  0
   63.7337   -9.1149  -28.4901 H   0  0  0  0  0  0  0  0  0  0  0  0
   65.7664   -8.7171  -27.0998 H   0  0  0  0  0  0  0  0  0  0  0  0
   65.7681   -7.0148  -27.5893 H   0  0  0  0  0  0  0  0  0  0  0  0
   65.9899   -7.7017  -29.9771 H   0  0  0  0  0  0  0  0  0  0  0  0
   65.9881   -9.4040  -29.4876 H   0  0  0  0  0  0  0  0  0  0  0  0
   68.0208   -9.0063  -28.0974 H   0  0  0  0  0  0  0  0  0  0  0  0
   68.0225   -7.3039  -28.5869 H   0  0  0  0  0  0  0  0  0  0  0  0
   68.2443   -7.9908  -30.9747 H   0  0  0  0  0  0  0  0  0  0  0  0
   68.2425   -9.6931  -30.4852 H   0  0  0  0  0  0  0  0  0  0  0  0
   70.2752   -9.2954  -29.0949 H   0  0  0  0  0  0  0  0  0  0  0  0
   70.2769   -7.5931  -29.5844 H   0  0  0  0  0  0  0  0  0  0  0  0
   70.4987   -8.2799  -31.9722 H   0  0  0  0  0  0  0  0  0  0  0  0
   70.4970   -9.9822  -31.4827 H   0  0  0  0  0  0  0  0  0  0  0  0
   72.5296   -9.5845  -30.0925 H   0  0  0  0  0  0  0  0  0  0  0  0
   72.5313   -7.8822  -30.5820 H   0  0  0  0  0  0  0  0  0  0  0  0
   72.7531   -8.5691  -32.9698 H   0  0  0  0  0  0  0  0  0  0  0  0
   72.7513  -10.2714  -32.4803 H   0  0  0  0  0  0  0  0  0  0  0  0
   74.7838   -9.8726  -31.0891 H   0  0  0  0  0  0  0  0  0  0  0  0
   74.7859   -8.1709  -31.5809 H   0  0  0  0  0  0  0  0  0  0  0  0
   75.0077   -8.8612  -33.9677 H   0  0  0  0  0  0  0  0  0  0  0  0
   75.0055  -10.5628  -33.4759 H   0  0  0  0  0  0  0  0  0  0  0  0
   77.0382  -10.1636  -32.0860 H   0  0  0  0  0  0  0  0  0  0  0  0
   77.0403   -8.4620  -32.5779 H   0  0  0  0  0  0  0  0  0  0  0  0
   77.2621   -9.1522  -34.9647 H   0  0  0  0  0  0  0  0  0  0  0  0
   77.2599  -10.8539  -34.4729 H   0  0  0  0  0  0  0  0  0  0  0  0
   79.2926  -10.4547  -33.0830 H   0  0  0  0  0  0  0  0  0  0  0  0
   79.2947   -8.7531  -33.5749 H   0  0  0  0  0  0  0  0  0  0  0  0
   79.5165   -9.4433  -35.9617 H   0  0  0  0  0  0  0  0  0  0  0  0
   79.5143  -11.1449  -35.4698 H   0  0  0  0  0  0  0  0  0  0  0  0
   81.5468  -10.7447  -34.0791 H   0  0  0  0  0  0  0  0  0  0  0  0
   81.5493   -9.0437  -34.5733 H   0  0  0  0  0  0  0  0  0  0  0  0
   81.7711   -9.7373  -36.9591 H   0  0  0  0  0  0  0  0  0  0  0  0
   81.7685  -11.4383  -36.4649 H   0  0  0  0  0  0  0  0  0  0  0  0
   83.8012  -11.0377  -35.0756 H   0  0  0  0  0  0  0  0  0  0  0  0
   83.8038   -9.3368  -35.5698 H   0  0  0  0  0  0  0  0  0  0  0  0
   84.0243  -10.0312  -37.9562 H   0  0  0  0  0  0  0  0  0  0  0  0
   84.0239  -11.7320  -37.4608 H   0  0  0  0  0  0  0  0  0  0  0  0
   86.0567  -11.3288  -36.0739 H   0  0  0  0  0  0  0  0  0  0  0  0
   86.0568   -9.6281  -36.5668 H   0  0  0  0  0  0  0  0  0  0  0  0
   86.2884  -10.3199  -38.9551 H   0  0  0  0  0  0  0  0  0  0  0  0
   86.2884  -12.0214  -38.4620 H   0  0  0  0  0  0  0  0  0  0  0  0
   88.3261   -9.9180  -37.5778 H   0  0  0  0  0  0  0  0  0  0  0  0
   88.5988  -11.1928  -38.7851 H   0  0  0  0  0  0  0  0  0  0  0  0
   88.3261  -11.6245  -37.0832 H   0  0  0  0  0  0  0  0  0  0  0  0
  1  2  2  0  0  0  0
  1 81  1  0  0  0  0
  1 82  1  0  0  0  0
  2  3  1  0  0  0  0
  2 83  1  0  0  0  0
  3  4  1  0  0  0  0
  3 84  1  0  0  0  0
  3 85  1  0  0  0  0
  4  5  1  0  0  0  0
  4 86  1  0  0  0  0
  5  6  1  0  0  0  0
  5 87  1  0  0  0  0
  6  7  1  0  0  0  0
  6 88  1  0  0  0  0
  7  8  1  0  0  0  0
  7 89  1  0  0  0  0
  8  9  1  0  0  0  0
  8 90  1  0  0  0  0
  9 10  1  0  0  0  0
  9 91  1  0  0  0  0
 10 11  1  0  0  0  0
 10 92  1  0  0  0  0
 11 12  1  0  0  0  0
 11 93  1  0  0  0  0
 12 13  1  0  0  0  0
 12 94  1  0  0  0  0
 13 14  1  0  0  0  0
 13 95  1  0  0  0  0
 14 15  1  0  0  0  0
 14 96  1  0  0  0  0
 15 16  1  0  0  0  0
 15 97  1  0  0  0  0
 16 17  1  0  0  0  0
 16 98  1  0  0  0  0
 17 18  1  0  0  0  0
 17 99  1  0  0  0  0
 18 19  1  0  0  0  0
 18100  1  0  0  0  0
 19 20  1  0  0  0  0
 19101  1  0  0  0  0
 20 21  1  0  0  0  0
 20102  1  0  0  0  0
 21 22  1  0  0  0  0
 21103  1  0  0  0  0
 22 23  1  0  0  0  0
 22104  1  0  0  0  0
 23 24  1  0  0  0  0
 23105  1  0  0  0  0
 24 25  1  0  0  0  0
 24106  1  0  0  0  0
 25 26  1  0  0  0  0
 25107  1  0  0  0  0
 26 27  1  0  0  0  0
 26108  1  0  0  0  0
 27 28  1  0  0  0  0
 27109  1  0  0  0  0
 28 29  1  0  0  0  0
 28110  1  0  0  0  0
 29 30  1  0  0  0  0
 29111  1  0  0  0  0
 30 31  1  0  0  0  0
 30112  1  0  0  0  0
 30113  1  0  0  0  0
 31 32  1  0  0  0  0
 31114  1  0  0  0  0
 32 33  1  0  0  0  0
 32115  1  0  0  0  0
 32116  1  0  0  0  0
 33 34  1  0  0  0  0
 33117  1  0  0  0  0
 34 35  1  0  0  0  0
 34118  1  0  0  0  0
 34119  1  0  0  0  0
 35 36  1  0  0  0  0
 35120  1  0  0  0  0
 36 37  1  0  0  0  0
 36121  1  0  0  0  0
 36122  1  0  0  0  0
 37 38  1  0  0  0  0
 37123  1  0  0  0  0
 38 39  1  0  0  0  0
 38124  1  0  0  0  0
 38125  1  0  0  0  0
 39 40  1  0  0  0  0
 39126  1  0  0  0  0
 39127  1  0  0  0  0
 40 41  1  0  0  0  0
 40128  1  0  0  0  0
 40129  1  0  0  0  0
 41 42  1  0  0  0  0
 41130  1  0  0  0  0
 41131  1  0  0  0  0
 42 43  1  0  0  0  0
 42132  1  0  0  0  0
 42133  1  0  0  0  0
 43 44  1  0  0  0  0
 43134  1  0  0  0  0
 43135  1  0  0  0  0
 44 45  1  0  0  0  0
 44136  1  0  0  0  0
 44137  1  0  0  0  0
 45 46  1  0  0  0  0
 45138  1  0  0  0  0
 45139  1  0  0  0  0
 46 47  1  0  0  0  0
 46140  1  0  0  0  0
 46141  1  0  0  0  0
 47 48  1  0  0  0  0
 47142  1  0  0  0  0
 47143  1  0  0  0  0
 48 49  1  0  0  0  0
 48144  1  0  0  0  0
 48145  1  0  0  0  0
 49 50  1  0  0  0  0
 49146  1  0  0  0  0
 49147  1  0  0  0  0
 50 51  1  0  0  0  0
 50148  1  0  0  0  0
 50149  1  0  0  0  0
 51 52  1  0  0  0  0
 51150  1  0  0  0  0
 51151  1  0  0  0  0
 52 53  1  0  0  0  0
 52152  1  0  0  0  0
 52153  1  0  0  0  0
 53 54  1  0  0  0  0
 53154  1  0  0  0  0
 53155  1  0  0  0  0
 54 55  1  0  0  0  0
 54156  1  0  0  0  0
 54157  1  0  0  0  0
 55 56  1  0  0  0  0
 55158  1  0  0  0  0
 55159  1  0  0  0  0
 56 57  1  0  0  0  0
 56160  1  0  0  0  0
 56161  1  0  0  0  0
 57 58  1  0  0  0  0
 57162  1  0  0  0  0
 57163  1  0  0  0  0
 58 59  1  0  0  0  0
 58164  1  0  0  0  0
 58165  1  0  0  0  0
 59 60  1  0  0  0  0
 59166  1  0  0  0  0
 59167  1  0  0  0  0
 60 61  1  0  0  0  0
 60168  1  0  0  0  0
 60169  1  0  0  0  0
 61 62  1  0  0  0  0
 61170  1  0  0  0  0
 61171  1  0  0  0  0
 62 63  1  0  0  0  0
 62172  1  0  0  0  0
 62173  1  0  0  0  0
 63 64  1  0  0  0  0
 63174  1  0  0  0  0
 63175  1  0  0  0  0
 64 65  1  0  0  0  0
 64176  1  0  0  0  0
 64177  1  0  0  0  0
 65 66  1  0  0  0  0
 65178  1  0  0  0  0
 65179  1  0  0  0  0
 66 67  1  0  0  0  0
 66180  1  0  0  0  0
 66181  1  0  0  0  0
 67 68  1  0  0  0  0
 67182  1  0  0  0  0
 67183  1  0  0  0  0
 68 69  1  0  0  0  0
 68184  1  0  0  0  0
 68185  1  0  0  0  0
 69 70  1  0  0  0  0
 69186  1  0  0  0  0
 69187  1  0  0  0  0
 70 71  1  0  0  0  0
 70188  1  0  0  0  0
 70189  1  0  0  0  0
 71 72  1  0  0  0  0
 71190  1  0  0  0  0
 71191  1  0  0  0  0
 72 73  1  0  0  0  0
 72192  1  0  0  0  0
 72193  1  0  0  0  0
 73 74  1  0  0  0  0
 73194  1  0  0  0  0
 73195  1  0  0  0  0
 74 75  1  0  0  0  0
 74196  1  0  0  0  0
 74197  1  0  0  0  0
 75 76  1  0  0  0  0
 75198  1  0  0  0  0
 75199  1  0  0  0  0
 76 77  1  0  0  0  0
 76200  1  0  0  0  0
 76201  1  0  0  0  0
 77 78  1  0  0  0  0
 77202  1  0  0  0  0
 77203  1  0  0  0  0
 78 79  1  0  0  0  0
 78204  1  0  0  0  0
 78205  1  0  0  0  0
 79 80  1  0  0  0  0
 79206  1  0  0  0  0
 79207  1  0  0  0  0
 80208  1  0  0  0  0
 80209  1  0  0  0  0
 80210  1  0  0  0  0
M  END
$$$$
