
 OpenBabel04232216443D

 48 49  0  0  0  0  0  0  0  0999 V2000
    1.2576    1.2065   -0.8721 C   0  0  0  0  0  0  0  0  0  0  0  0
    2.2799    0.1761   -0.4539 C   0  0  0  0  0  0  0  0  0  0  0  0
    3.3062   -0.1643   -1.5056 C   0  0  0  0  0  0  0  0  0  0  0  0
    3.0897    0.0590   -2.6996 O   0  0  0  0  0  0  0  0  0  0  0  0
    4.6704   -0.6550   -1.0762 C   0  0  0  0  0  0  0  0  0  0  0  0
    5.3794    0.2628   -0.0978 C   0  0  0  0  0  0  0  0  0  0  0  0
    6.3898    1.2258   -0.7319 C   0  0  0  0  0  0  0  0  0  0  0  0
    5.7484    2.2859   -1.6307 C   0  0  0  0  0  0  0  0  0  0  0  0
    6.8237    3.2227   -2.1787 C   0  0  0  0  0  0  0  0  0  0  0  0
    6.2382    4.3001   -3.0862 C   0  0  0  0  0  0  0  0  0  0  0  0
    7.3386    5.2052   -3.6182 C   0  0  0  0  0  0  0  0  0  0  0  0
    5.2219   -1.7472   -1.6750 C   0  0  0  0  0  0  0  0  0  0  0  0
    6.6530   -2.1020   -1.4915 C   0  0  0  0  0  0  0  0  0  0  0  0
    7.3340   -1.8330   -0.5125 O   0  0  0  0  0  0  0  0  0  0  0  0
    7.2608   -2.8157   -2.6689 C   0  0  0  0  0  0  0  0  0  0  0  0
    8.7596   -2.8237   -2.7954 C   0  0  0  0  0  0  0  0  0  0  0  0
    6.5427   -3.4235   -3.5631 N   0  0  0  0  0  0  0  0  0  0  0  0
    5.1538   -3.5034   -3.4178 N   0  0  0  0  0  0  0  0  0  0  0  0
    4.5350   -2.7385   -2.5711 C   0  0  0  0  0  0  0  0  0  0  0  0
    3.0787   -2.9495   -2.3836 C   0  0  0  0  0  0  0  0  0  0  0  0
    2.6369   -3.0792   -1.1265 C   0  0  0  0  0  0  0  0  0  0  0  0
    1.2795   -2.8184   -0.7420 C   0  0  0  0  0  0  0  0  0  0  0  0
    0.9800   -1.7823    0.0549 C   0  0  0  0  0  0  0  0  0  0  0  0
    1.9164   -0.7210    0.4944 C   0  0  0  0  0  0  0  0  0  0  0  0
    0.7340    0.8688   -1.7754 H   0  0  0  0  0  0  0  0  0  0  0  0
    1.7197    2.1752   -1.0715 H   0  0  0  0  0  0  0  0  0  0  0  0
    0.4923    1.3523   -0.0992 H   0  0  0  0  0  0  0  0  0  0  0  0
    5.8876   -0.3440    0.6628 H   0  0  0  0  0  0  0  0  0  0  0  0
    4.6580    0.8511    0.4779 H   0  0  0  0  0  0  0  0  0  0  0  0
    7.1382    0.6727   -1.3095 H   0  0  0  0  0  0  0  0  0  0  0  0
    6.9359    1.7282    0.0778 H   0  0  0  0  0  0  0  0  0  0  0  0
    5.0081    2.8574   -1.0596 H   0  0  0  0  0  0  0  0  0  0  0  0
    5.2251    1.8112   -2.4670 H   0  0  0  0  0  0  0  0  0  0  0  0
    7.5625    2.6368   -2.7396 H   0  0  0  0  0  0  0  0  0  0  0  0
    7.3546    3.6961   -1.3439 H   0  0  0  0  0  0  0  0  0  0  0  0
    5.5082    4.9015   -2.5324 H   0  0  0  0  0  0  0  0  0  0  0  0
    5.7096    3.8369   -3.9274 H   0  0  0  0  0  0  0  0  0  0  0  0
    7.8678    5.6994   -2.7978 H   0  0  0  0  0  0  0  0  0  0  0  0
    6.9163    5.9778   -4.2682 H   0  0  0  0  0  0  0  0  0  0  0  0
    8.0683    4.6311   -4.1988 H   0  0  0  0  0  0  0  0  0  0  0  0
    9.2293   -2.0997   -2.1272 H   0  0  0  0  0  0  0  0  0  0  0  0
    9.0393   -2.5817   -3.8238 H   0  0  0  0  0  0  0  0  0  0  0  0
    9.1330   -3.8246   -2.5559 H   0  0  0  0  0  0  0  0  0  0  0  0
    2.4502   -2.8582   -3.2610 H   0  0  0  0  0  0  0  0  0  0  0  0
    3.3342   -3.1396   -0.2914 H   0  0  0  0  0  0  0  0  0  0  0  0
    0.4973   -3.4738   -1.1141 H   0  0  0  0  0  0  0  0  0  0  0  0
   -0.0549   -1.6397    0.3678 H   0  0  0  0  0  0  0  0  0  0  0  0
    1.4356   -0.2923    1.3837 H   0  0  0  0  0  0  0  0  0  0  0  0
  1  2  1  0  0  0  0
  1 25  1  0  0  0  0
  1 26  1  0  0  0  0
  1 27  1  0  0  0  0
  2  3  1  0  0  0  0
  2 24  2  3  0  0  0
  3  4  2  0  0  0  0
  3  5  1  0  0  0  0
  5  6  1  0  0  0  0
  5 12  2  3  0  0  0
  6  7  1  0  0  0  0
  6 28  1  0  0  0  0
  6 29  1  0  0  0  0
  7  8  1  0  0  0  0
  7 30  1  0  0  0  0
  7 31  1  0  0  0  0
  8  9  1  0  0  0  0
  8 32  1  0  0  0  0
  8 33  1  0  0  0  0
  9 10  1  0  0  0  0
  9 34  1  0  0  0  0
  9 35  1  0  0  0  0
 10 11  1  0  0  0  0
 10 36  1  0  0  0  0
 10 37  1  0  0  0  0
 11 38  1  0  0  0  0
 11 39  1  0  0  0  0
 11 40  1  0  0  0  0
 12 13  1  0  0  0  0
 12 19  1  0  0  0  0
 13 14  2  0  0  0  0
 13 15  1  0  0  0  0
 15 16  1  0  0  0  0
 15 17  2  0  0  0  0
 16 41  1  0  0  0  0
 16 42  1  0  0  0  0
 16 43  1  0  0  0  0
 17 18  1  0  0  0  0
 18 19  2  0  0  0  0
 19 20  1  0  0  0  0
 20 21  2  3  0  0  0
 20 44  1  0  0  0  0
 21 22  1  0  0  0  0
 21 45  1  0  0  0  0
 22 23  2  3  0  0  0
 22 46  1  0  0  0  0
 23 24  1  0  0  0  0
 23 47  1  0  0  0  0
 24 48  1  0  0  0  0
M  END
$$$$
