
 OpenBabel04232216523D

 48 49  0  0  1  0  0  0  0  0999 V2000
    1.1611    3.1025    2.9437 C   0  0  0  0  0  0  0  0  0  0  0  0
    2.1531    2.2375    3.7021 C   0  0  0  0  0  0  0  0  0  0  0  0
    3.4414    2.0208    2.9023 C   0  0  0  0  0  0  0  0  0  0  0  0
    4.4597    1.1595    3.6622 C   0  0  3  0  0  0  0  0  0  0  0  0
    5.7652    0.9596    2.8748 C   0  0  0  0  0  0  0  0  0  0  0  0
    5.6579   -0.4162    2.1891 C   0  0  3  0  0  0  0  0  0  0  0  0
    7.0124   -1.1310    2.1746 C   0  0  0  0  0  0  0  0  0  0  0  0
    6.9736   -2.4787    1.4454 C   0  0  0  0  0  0  0  0  0  0  0  0
    8.2900   -3.2566    1.5636 C   0  0  0  0  0  0  0  0  0  0  0  0
    8.7194   -3.5742    3.0015 C   0  0  0  0  0  0  0  0  0  0  0  0
    7.6447   -4.3540    3.7551 C   0  0  0  0  0  0  0  0  0  0  0  0
    7.9957   -4.6426    5.1986 C   0  0  0  0  0  0  0  0  0  0  0  0
    9.0573   -4.2673    5.6964 O   0  0  0  0  0  0  0  0  0  0  0  0
    6.9650   -5.3773    5.9279 C   0  0  0  0  0  0  0  0  0  0  0  0
    5.7282   -5.8894    5.6024 N   0  0  0  0  0  0  0  0  0  0  0  0
    5.5827   -6.3160    6.7869 N   0  0  0  0  0  0  0  0  0  0  0  0
    6.8349   -5.8112    7.1712 C   0  0  0  0  0  0  0  0  0  0  0  0
    7.6752   -5.7591    8.4037 C   0  0  0  0  0  0  0  0  0  0  0  0
    7.1473   -6.4410    9.6195 C   0  0  0  0  0  0  0  0  0  0  0  0
    6.0827   -7.0364    9.6994 O   0  0  0  0  0  0  0  0  0  0  0  0
    4.6278   -1.1059    3.0353 C   0  0  0  0  0  0  0  0  0  0  0  0
    3.9921   -0.2525    3.8436 C   0  0  0  0  0  0  0  0  0  0  0  0
    0.2580    3.2520    3.5436 H   0  0  0  0  0  0  0  0  0  0  0  0
    0.8681    2.6279    2.0019 H   0  0  0  0  0  0  0  0  0  0  0  0
    1.5876    4.0848    2.7183 H   0  0  0  0  0  0  0  0  0  0  0  0
    1.6754    1.2762    3.9251 H   0  0  0  0  0  0  0  0  0  0  0  0
    2.3897    2.7122    4.6602 H   0  0  0  0  0  0  0  0  0  0  0  0
    3.8944    2.9963    2.6830 H   0  0  0  0  0  0  0  0  0  0  0  0
    3.2001    1.5622    1.9345 H   0  0  0  0  0  0  0  0  0  0  0  0
    4.6841    1.6161    4.6319 H   0  0  0  0  0  0  0  0  0  0  0  0
    6.6079    0.9741    3.5794 H   0  0  0  0  0  0  0  0  0  0  0  0
    5.9539    1.7576    2.1475 H   0  0  0  0  0  0  0  0  0  0  0  0
    5.2775   -0.3044    1.1674 H   0  0  0  0  0  0  0  0  0  0  0  0
    7.3421   -1.2693    3.2109 H   0  0  0  0  0  0  0  0  0  0  0  0
    7.7604   -0.4904    1.6892 H   0  0  0  0  0  0  0  0  0  0  0  0
    6.7549   -2.3090    0.3846 H   0  0  0  0  0  0  0  0  0  0  0  0
    6.1525   -3.1000    1.8180 H   0  0  0  0  0  0  0  0  0  0  0  0
    9.0894   -2.6935    1.0680 H   0  0  0  0  0  0  0  0  0  0  0  0
    8.1834   -4.1996    1.0130 H   0  0  0  0  0  0  0  0  0  0  0  0
    8.9691   -2.6516    3.5382 H   0  0  0  0  0  0  0  0  0  0  0  0
    9.6477   -4.1579    2.9750 H   0  0  0  0  0  0  0  0  0  0  0  0
    7.4653   -5.3081    3.2460 H   0  0  0  0  0  0  0  0  0  0  0  0
    6.7089   -3.7870    3.7772 H   0  0  0  0  0  0  0  0  0  0  0  0
    7.8807   -4.7075    8.6407 H   0  0  0  0  0  0  0  0  0  0  0  0
    8.6730   -6.1490    8.1672 H   0  0  0  0  0  0  0  0  0  0  0  0
    7.8084   -6.3777   10.4994 H   0  0  0  0  0  0  0  0  0  0  0  0
    4.3941   -2.1577    2.9750 H   0  0  0  0  0  0  0  0  0  0  0  0
    3.1981   -0.5360    4.5240 H   0  0  0  0  0  0  0  0  0  0  0  0
  1  2  1  0  0  0  0
  1 23  1  0  0  0  0
  1 24  1  0  0  0  0
  1 25  1  0  0  0  0
  2  3  1  0  0  0  0
  2 26  1  0  0  0  0
  2 27  1  0  0  0  0
  3  4  1  0  0  0  0
  3 28  1  0  0  0  0
  3 29  1  0  0  0  0
  4  5  1  0  0  0  0
  4 22  1  0  0  0  0
  4 30  1  0  0  0  0
  5  6  1  0  0  0  0
  5 31  1  0  0  0  0
  5 32  1  0  0  0  0
  6  7  1  0  0  0  0
  6 21  1  0  0  0  0
  6 33  1  0  0  0  0
  7  8  1  0  0  0  0
  7 34  1  0  0  0  0
  7 35  1  0  0  0  0
  8  9  1  0  0  0  0
  8 36  1  0  0  0  0
  8 37  1  0  0  0  0
  9 10  1  0  0  0  0
  9 38  1  0  0  0  0
  9 39  1  0  0  0  0
 10 11  1  0  0  0  0
 10 40  1  0  0  0  0
 10 41  1  0  0  0  0
 11 12  1  0  0  0  0
 11 42  1  0  0  0  0
 11 43  1  0  0  0  0
 12 13  2  0  0  0  0
 12 14  1  0  0  0  0
 14 15  1  0  0  0  0
 14 17  2  0  0  0  0
 15 16  2  0  0  0  0
 16 17  1  0  0  0  0
 17 18  1  0  0  0  0
 18 19  1  0  0  0  0
 18 44  1  0  0  0  0
 18 45  1  0  0  0  0
 19 20  2  0  0  0  0
 19 46  1  0  0  0  0
 21 22  2  0  0  0  0
 21 47  1  0  0  0  0
 22 48  1  0  0  0  0
M  END
$$$$
