
 OpenBabel04232216423D

 20 20  0  0  0  0  0  0  0  0999 V2000
    0.6616    1.3084   -0.0074 C   0  0  0  0  0  0  0  0  0  0  0  0
    1.4591    0.1700   -0.0146 C   0  0  0  0  0  0  0  0  0  0  0  0
    0.8568   -1.0855   -0.0044 C   0  0  0  0  0  0  0  0  0  0  0  0
   -0.5342   -1.1665    0.0223 C   0  0  0  0  0  0  0  0  0  0  0  0
   -1.2412   -2.4985    0.0339 C   0  0  0  0  0  0  0  0  0  0  0  0
   -0.9245   -3.3832    1.2433 C   0  0  0  0  0  0  0  0  0  0  0  0
   -1.3120   -2.7521    2.5729 C   0  0  0  0  0  0  0  0  0  0  0  0
   -1.3221   -0.0637    0.0291 N   0  0  0  0  0  0  0  0  0  0  0  0
   -0.7113    1.1403    0.0120 C   0  0  0  0  0  0  0  0  0  0  0  0
    1.0991    2.2999   -0.0184 H   0  0  0  0  0  0  0  0  0  0  0  0
    2.5408    0.2598   -0.0281 H   0  0  0  0  0  0  0  0  0  0  0  0
    1.4683   -1.9814   -0.0146 H   0  0  0  0  0  0  0  0  0  0  0  0
   -0.9768   -3.0350   -0.8858 H   0  0  0  0  0  0  0  0  0  0  0  0
   -2.3251   -2.3302   -0.0107 H   0  0  0  0  0  0  0  0  0  0  0  0
    0.1406   -3.6401    1.2626 H   0  0  0  0  0  0  0  0  0  0  0  0
   -1.4724   -4.3278    1.1335 H   0  0  0  0  0  0  0  0  0  0  0  0
   -0.7504   -1.8313    2.7594 H   0  0  0  0  0  0  0  0  0  0  0  0
   -1.0957   -3.4440    3.3934 H   0  0  0  0  0  0  0  0  0  0  0  0
   -2.3804   -2.5169    2.6000 H   0  0  0  0  0  0  0  0  0  0  0  0
   -1.3800    1.9968    0.0131 H   0  0  0  0  0  0  0  0  0  0  0  0
  1  2  1  0  0  0  0
  1  9  2  0  0  0  0
  1 10  1  0  0  0  0
  2  3  2  0  0  0  0
  2 11  1  0  0  0  0
  3  4  1  0  0  0  0
  3 12  1  0  0  0  0
  4  5  1  0  0  0  0
  4  8  2  0  0  0  0
  5  6  1  0  0  0  0
  5 13  1  0  0  0  0
  5 14  1  0  0  0  0
  6  7  1  0  0  0  0
  6 15  1  0  0  0  0
  6 16  1  0  0  0  0
  7 17  1  0  0  0  0
  7 18  1  0  0  0  0
  7 19  1  0  0  0  0
  8  9  1  0  0  0  0
  9 20  1  0  0  0  0
M  END
$$$$
