
 OpenBabel04232216493D

 73 74  0  0  1  0  0  0  0  0999 V2000
    1.1365   -0.0084   -0.9043 C   0  0  0  0  0  0  0  0  0  0  0  0
    2.5558   -0.2450   -0.3784 C   0  0  3  0  0  0  0  0  0  0  0  0
    3.1501   -1.5151   -1.0407 C   0  0  0  0  0  0  0  0  0  0  0  0
    3.8491   -2.4545   -0.0420 C   0  0  0  0  0  0  0  0  0  0  0  0
    5.3165   -2.7602   -0.3799 C   0  0  0  0  0  0  0  0  0  0  0  0
    6.2924   -2.2911    0.7133 C   0  0  0  0  0  0  0  0  0  0  0  0
    7.3585   -1.3147    0.1936 C   0  0  0  0  0  0  0  0  0  0  0  0
    7.4461   -0.0227    1.0224 C   0  0  0  0  0  0  0  0  0  0  0  0
    7.3752    1.2436    0.1556 C   0  0  0  0  0  0  0  0  0  0  0  0
    6.4933    2.3691    0.7284 C   0  0  0  0  0  0  0  0  0  0  0  0
    5.1937    2.6609   -0.0605 C   0  0  0  0  0  0  0  0  0  0  0  0
    3.8487    2.0095    0.3727 C   0  0  3  0  0  0  0  0  0  0  0  0
    3.8971    1.4609    1.8004 C   0  0  0  0  0  0  0  0  0  0  0  0
    4.3985    0.3500    2.0163 O   0  0  0  0  0  0  0  0  0  0  0  0
    3.3490    2.2232    2.9735 C   0  0  0  0  0  0  0  0  0  0  0  0
    2.7893    1.3898    3.8645 C   0  0  0  0  0  0  0  0  0  0  0  0
    2.6947    1.6118    5.2802 C   0  0  0  0  0  0  0  0  0  0  0  0
    2.5177    2.7420    5.9852 C   0  0  0  0  0  0  0  0  0  0  0  0
    2.5562    2.6270    7.5047 C   0  0  0  0  0  0  0  0  0  0  0  0
    1.1604    2.8162    8.0999 C   0  0  0  0  0  0  0  0  0  0  0  0
    1.1031    2.4959    9.5940 C   0  0  0  0  0  0  0  0  0  0  0  0
   -0.3245    2.7385   10.0896 C   0  0  0  0  0  0  0  0  0  0  0  0
   -0.4899    2.4686   11.5806 C   0  0  0  0  0  0  0  0  0  0  0  0
   -1.9239    2.7498   12.0101 C   0  0  0  0  0  0  0  0  0  0  0  0
    2.2976    4.1289    5.4306 C   0  0  0  0  0  0  0  0  0  0  0  0
    2.4860    4.4075    3.9308 C   0  0  0  0  0  0  0  0  0  0  0  0
    3.6434    3.6740    3.2201 C   0  0  0  0  0  0  0  0  0  0  0  0
    3.4433    0.9531   -0.6485 C   0  0  0  0  0  3  0  0  0  0  0  0
    0.4710   -0.8081   -0.5523 H   0  0  0  0  0  0  0  0  0  0  0  0
    1.0980   -0.0071   -1.9987 H   0  0  0  0  0  0  0  0  0  0  0  0
    0.7264    0.9400   -0.5435 H   0  0  0  0  0  0  0  0  0  0  0  0
    2.4518   -0.4016    0.6978 H   0  0  0  0  0  0  0  0  0  0  0  0
    3.8174   -1.2448   -1.8694 H   0  0  0  0  0  0  0  0  0  0  0  0
    2.3406   -2.0960   -1.5065 H   0  0  0  0  0  0  0  0  0  0  0  0
    3.3054   -3.4090   -0.0620 H   0  0  0  0  0  0  0  0  0  0  0  0
    3.7408   -2.0929    0.9842 H   0  0  0  0  0  0  0  0  0  0  0  0
    5.5894   -2.3722   -1.3661 H   0  0  0  0  0  0  0  0  0  0  0  0
    5.4176   -3.8508   -0.4621 H   0  0  0  0  0  0  0  0  0  0  0  0
    6.8081   -3.1756    1.1085 H   0  0  0  0  0  0  0  0  0  0  0  0
    5.7536   -1.8746    1.5683 H   0  0  0  0  0  0  0  0  0  0  0  0
    7.1999   -1.0901   -0.8652 H   0  0  0  0  0  0  0  0  0  0  0  0
    8.3326   -1.8196    0.2411 H   0  0  0  0  0  0  0  0  0  0  0  0
    8.4085   -0.0249    1.5530 H   0  0  0  0  0  0  0  0  0  0  0  0
    6.6971   -0.0003    1.8133 H   0  0  0  0  0  0  0  0  0  0  0  0
    7.0828    1.0198   -0.8747 H   0  0  0  0  0  0  0  0  0  0  0  0
    8.4025    1.6303    0.0895 H   0  0  0  0  0  0  0  0  0  0  0  0
    7.0943    3.2855    0.6475 H   0  0  0  0  0  0  0  0  0  0  0  0
    6.3170    2.2504    1.8007 H   0  0  0  0  0  0  0  0  0  0  0  0
    5.3846    2.4776   -1.1290 H   0  0  0  0  0  0  0  0  0  0  0  0
    5.0377    3.7451   -0.0017 H   0  0  0  0  0  0  0  0  0  0  0  0
    3.0639    2.7780    0.3315 H   0  0  0  0  0  0  0  0  0  0  0  0
    2.5988    0.3562    3.5904 H   0  0  0  0  0  0  0  0  0  0  0  0
    2.8461    0.6823    5.8310 H   0  0  0  0  0  0  0  0  0  0  0  0
    3.2586    3.3624    7.9175 H   0  0  0  0  0  0  0  0  0  0  0  0
    2.9458    1.6477    7.8073 H   0  0  0  0  0  0  0  0  0  0  0  0
    0.4533    2.1659    7.5707 H   0  0  0  0  0  0  0  0  0  0  0  0
    0.8384    3.8476    7.9402 H   0  0  0  0  0  0  0  0  0  0  0  0
    1.8076    3.1287   10.1457 H   0  0  0  0  0  0  0  0  0  0  0  0
    1.3886    1.4530    9.7717 H   0  0  0  0  0  0  0  0  0  0  0  0
   -1.0150    2.0973    9.5268 H   0  0  0  0  0  0  0  0  0  0  0  0
   -0.6082    3.7766    9.8768 H   0  0  0  0  0  0  0  0  0  0  0  0
    0.1938    3.1007   12.1565 H   0  0  0  0  0  0  0  0  0  0  0  0
   -0.2409    1.4251   11.8042 H   0  0  0  0  0  0  0  0  0  0  0  0
   -2.1903    3.7934   11.8173 H   0  0  0  0  0  0  0  0  0  0  0  0
   -2.0472    2.5552   13.0793 H   0  0  0  0  0  0  0  0  0  0  0  0
   -2.6291    2.1124   11.4660 H   0  0  0  0  0  0  0  0  0  0  0  0
    2.9510    4.8201    5.9826 H   0  0  0  0  0  0  0  0  0  0  0  0
    1.2721    4.4283    5.6840 H   0  0  0  0  0  0  0  0  0  0  0  0
    2.6460    5.4918    3.8247 H   0  0  0  0  0  0  0  0  0  0  0  0
    1.5448    4.2004    3.4066 H   0  0  0  0  0  0  0  0  0  0  0  0
    4.5687    3.7831    3.8001 H   0  0  0  0  0  0  0  0  0  0  0  0
    3.8098    4.1881    2.2673 H   0  0  0  0  0  0  0  0  0  0  0  0
    3.5612    1.2186   -1.7041 H   0  0  0  0  0  0  0  0  0  0  0  0
  1  2  1  0  0  0  0
  1 29  1  0  0  0  0
  1 30  1  0  0  0  0
  1 31  1  0  0  0  0
  2  3  1  0  0  0  0
  2 28  1  0  0  0  0
  2 32  1  0  0  0  0
  3  4  1  0  0  0  0
  3 33  1  0  0  0  0
  3 34  1  0  0  0  0
  4  5  1  0  0  0  0
  4 35  1  0  0  0  0
  4 36  1  0  0  0  0
  5  6  1  0  0  0  0
  5 37  1  0  0  0  0
  5 38  1  0  0  0  0
  6  7  1  0  0  0  0
  6 39  1  0  0  0  0
  6 40  1  0  0  0  0
  7  8  1  0  0  0  0
  7 41  1  0  0  0  0
  7 42  1  0  0  0  0
  8  9  1  0  0  0  0
  8 43  1  0  0  0  0
  8 44  1  0  0  0  0
  9 10  1  0  0  0  0
  9 45  1  0  0  0  0
  9 46  1  0  0  0  0
 10 11  1  0  0  0  0
 10 47  1  0  0  0  0
 10 48  1  0  0  0  0
 11 12  1  0  0  0  0
 11 49  1  0  0  0  0
 11 50  1  0  0  0  0
 12 13  1  0  0  0  0
 12 28  1  0  0  0  0
 12 51  1  0  0  0  0
 13 14  2  0  0  0  0
 13 15  1  0  0  0  0
 15 16  2  0  0  0  0
 15 27  1  0  0  0  0
 16 17  1  0  0  0  0
 16 52  1  0  0  0  0
 17 18  2  0  0  0  0
 17 53  1  0  0  0  0
 18 19  1  0  0  0  0
 18 25  1  0  0  0  0
 19 20  1  0  0  0  0
 19 54  1  0  0  0  0
 19 55  1  0  0  0  0
 20 21  1  0  0  0  0
 20 56  1  0  0  0  0
 20 57  1  0  0  0  0
 21 22  1  0  0  0  0
 21 58  1  0  0  0  0
 21 59  1  0  0  0  0
 22 23  1  0  0  0  0
 22 60  1  0  0  0  0
 22 61  1  0  0  0  0
 23 24  1  0  0  0  0
 23 62  1  0  0  0  0
 23 63  1  0  0  0  0
 24 64  1  0  0  0  0
 24 65  1  0  0  0  0
 24 66  1  0  0  0  0
 25 26  1  0  0  0  0
 25 67  1  0  0  0  0
 25 68  1  0  0  0  0
 26 27  1  0  0  0  0
 26 69  1  0  0  0  0
 26 70  1  0  0  0  0
 27 71  1  0  0  0  0
 27 72  1  0  0  0  0
 28 73  1  0  0  0  0
M  END
$$$$
