
 OpenBabel04232216513D

 28 29  0  0  1  0  0  0  0  0999 V2000
    2.7730    3.4273    1.1989 C   0  0  0  0  0  0  0  0  0  0  0  0
    3.2922    2.1530    1.8459 C   0  0  0  0  0  0  0  0  0  0  0  0
    3.0442    0.8963    0.9951 C   0  0  0  0  0  0  0  0  0  0  0  0
    3.6021   -0.3528    1.7067 C   0  0  3  0  0  0  0  0  0  0  0  0
    5.1913   -0.2677    1.8926 C   0  0  0  0  0  0  0  0  0  0  0  0
    5.1367   -1.6171    1.9031 C   0  0  0  0  0  0  0  0  0  0  0  0
    4.0096   -1.5788    0.8477 C   0  0  0  0  0  0  0  0  0  0  0  0
    5.7747   -2.5749    2.8129 C   0  0  0  0  0  0  0  0  0  0  0  0
    5.0564   -3.5855    3.3254 C   0  0  0  0  0  0  0  0  0  0  0  0
    3.3626   -3.8051    3.0159 S   0  0  0  0  0  0  0  0  0  0  0  0
    2.5988   -2.1916    3.5177 C   0  0  0  0  0  0  0  0  0  0  0  0
    2.7972   -0.7222    3.0022 C   0  0  0  0  0  0  0  0  0  0  0  0
    3.0046    4.2833    1.8399 H   0  0  0  0  0  0  0  0  0  0  0  0
    1.6911    3.3849    1.0607 H   0  0  0  0  0  0  0  0  0  0  0  0
    3.2496    3.5940    0.2279 H   0  0  0  0  0  0  0  0  0  0  0  0
    2.8246    2.0424    2.8308 H   0  0  0  0  0  0  0  0  0  0  0  0
    4.3656    2.2809    2.0241 H   0  0  0  0  0  0  0  0  0  0  0  0
    3.5229    1.0226    0.0153 H   0  0  0  0  0  0  0  0  0  0  0  0
    1.9714    0.7743    0.8047 H   0  0  0  0  0  0  0  0  0  0  0  0
    5.7930    0.4418    2.4571 H   0  0  0  0  0  0  0  0  0  0  0  0
    3.2688   -2.3763    0.7798 H   0  0  0  0  0  0  0  0  0  0  0  0
    4.3236   -1.3638   -0.1841 H   0  0  0  0  0  0  0  0  0  0  0  0
    6.7278   -2.3208    3.2645 H   0  0  0  0  0  0  0  0  0  0  0  0
    5.5115   -4.2270    4.0745 H   0  0  0  0  0  0  0  0  0  0  0  0
    2.6985   -2.1548    4.6104 H   0  0  0  0  0  0  0  0  0  0  0  0
    1.5326   -2.4027    3.3588 H   0  0  0  0  0  0  0  0  0  0  0  0
    3.2099   -0.1363    3.8345 H   0  0  0  0  0  0  0  0  0  0  0  0
    1.7770   -0.3289    2.8770 H   0  0  0  0  0  0  0  0  0  0  0  0
  1  2  1  0  0  0  0
  1 13  1  0  0  0  0
  1 14  1  0  0  0  0
  1 15  1  0  0  0  0
  2  3  1  0  0  0  0
  2 16  1  0  0  0  0
  2 17  1  0  0  0  0
  3  4  1  0  0  0  0
  3 18  1  0  0  0  0
  3 19  1  0  0  0  0
  4  5  1  0  0  0  0
  4  7  1  0  0  0  0
  4 12  1  0  0  0  0
  5  6  2  0  0  0  0
  5 20  1  0  0  0  0
  6  7  1  0  0  0  0
  6  8  1  0  0  0  0
  7 21  1  0  0  0  0
  7 22  1  0  0  0  0
  8  9  2  0  0  0  0
  8 23  1  0  0  0  0
  9 10  1  0  0  0  0
  9 24  1  0  0  0  0
 10 11  1  0  0  0  0
 11 12  1  0  0  0  0
 11 25  1  0  0  0  0
 11 26  1  0  0  0  0
 12 27  1  0  0  0  0
 12 28  1  0  0  0  0
M  END
$$$$
