
 OpenBabel04232216583D

167166  0  0  0  0  0  0  0  0999 V2000
   21.6582   10.0298  -28.4086 N   0  0  0  0  0  0  0  0  0  0  0  0
   21.1770   10.8081  -27.2798 C   0  0  0  0  0  0  0  0  0  0  0  0
   21.8037   10.2984  -25.9917 C   0  0  0  0  0  0  0  0  0  0  0  0
   21.3075   11.1092  -24.8035 C   0  0  0  0  0  0  0  0  0  0  0  0
   21.9124   10.5967  -23.5798 N   0  0  0  0  0  0  0  0  0  0  0  0
   21.4408   11.3601  -22.4753 N   0  0  0  0  0  0  0  0  0  0  0  0
   22.0374   10.8781  -21.2786 N   0  0  0  0  0  0  0  0  0  0  0  0
   23.4615   10.9953  -21.3504 N   0  0  0  0  0  0  0  0  0  0  0  0
   23.8263   12.3645  -21.5459 N   0  0  0  0  0  0  0  0  0  0  0  0
   23.3373   13.1425  -20.4473 N   0  0  0  0  0  0  0  0  0  0  0  0
   23.9161   12.6387  -19.2356 N   0  0  0  0  0  0  0  0  0  0  0  0
   25.3278   12.7306  -19.3365 N   0  0  0  0  0  0  0  0  0  0  0  0
   25.7119   14.0882  -19.5140 N   0  0  0  0  0  0  0  0  0  0  0  0
   25.2386   14.8828  -18.4313 N   0  0  0  0  0  0  0  0  0  0  0  0
   25.8016   14.4166  -17.1966 N   0  0  0  0  0  0  0  0  0  0  0  0
   27.2331   14.4949  -17.2630 N   0  0  0  0  0  0  0  0  0  0  0  0
   27.6316   15.8679  -17.4683 N   0  0  0  0  0  0  0  0  0  0  0  0
   27.1464   16.6898  -16.3885 N   0  0  0  0  0  0  0  0  0  0  0  0
   27.6885   16.2182  -15.1445 N   0  0  0  0  0  0  0  0  0  0  0  0
   29.1148   16.2638  -15.2162 N   0  0  0  0  0  0  0  0  0  0  0  0
   29.5087   17.6116  -15.4408 N   0  0  0  0  0  0  0  0  0  0  0  0
   29.0356   18.4401  -14.3824 N   0  0  0  0  0  0  0  0  0  0  0  0
   29.5545   17.9907  -13.1488 N   0  0  0  0  0  0  0  0  0  0  0  0
   30.9686   18.0390  -13.1793 N   0  0  0  0  0  0  0  0  0  0  0  0
   31.4051   19.3861  -13.4121 N   0  0  0  0  0  0  0  0  0  0  0  0
   30.9378   20.2420  -12.3452 N   0  0  0  0  0  0  0  0  0  0  0  0
   31.4543   19.7853  -11.0754 N   0  0  0  0  0  0  0  0  0  0  0  0
   32.8780   19.8108  -11.1298 N   0  0  0  0  0  0  0  0  0  0  0  0
   33.2869   21.1426  -11.4145 N   0  0  0  0  0  0  0  0  0  0  0  0
   32.7900   21.9865  -10.3765 N   0  0  0  0  0  0  0  0  0  0  0  0
   33.2885   21.5235   -9.1289 N   0  0  0  0  0  0  0  0  0  0  0  0
   34.7199   21.5699   -9.1198 N   0  0  0  0  0  0  0  0  0  0  0  0
   35.1863   22.9083   -9.3692 N   0  0  0  0  0  0  0  0  0  0  0  0
   34.7258   23.8043   -8.3225 N   0  0  0  0  0  0  0  0  0  0  0  0
   35.2132   23.3547   -7.0501 N   0  0  0  0  0  0  0  0  0  0  0  0
   36.6441   23.3406   -7.0820 N   0  0  0  0  0  0  0  0  0  0  0  0
   37.0990   24.6643   -7.3500 N   0  0  0  0  0  0  0  0  0  0  0  0
   36.6220   25.5532   -6.3429 N   0  0  0  0  0  0  0  0  0  0  0  0
   37.0848   25.1197   -5.0760 N   0  0  0  0  0  0  0  0  0  0  0  0
   38.5091   25.1136   -5.0782 N   0  0  0  0  0  0  0  0  0  0  0  0
   39.0156   26.4446   -5.3279 N   0  0  0  0  0  0  0  0  0  0  0  0
   38.5301   27.3644   -4.3241 N   0  0  0  0  0  0  0  0  0  0  0  0
   38.9816   26.9059   -3.0528 N   0  0  0  0  0  0  0  0  0  0  0  0
   40.4136   26.8801   -3.0635 N   0  0  0  0  0  0  0  0  0  0  0  0
   40.8973   28.1844   -3.3709 N   0  0  0  0  0  0  0  0  0  0  0  0
   40.4270   29.0876   -2.3773 N   0  0  0  0  0  0  0  0  0  0  0  0
   40.9007   28.7091   -1.0637 N   0  0  0  0  0  0  0  0  0  0  0  0
   42.3401   28.6734   -1.0289 N   0  0  0  0  0  0  0  0  0  0  0  0
   42.8597   29.9741   -1.3200 N   0  0  0  0  0  0  0  0  0  0  0  0
   42.3593   30.8887   -0.3497 N   0  0  0  0  0  0  0  0  0  0  0  0
   42.7913   30.4721    0.9395 N   0  0  0  0  0  0  0  0  0  0  0  0
   44.2126   30.4150    0.9672 N   0  0  0  0  0  0  0  0  0  0  0  0
   44.7503   31.7163    0.6898 N   0  0  0  0  0  0  0  0  0  0  0  0
   44.2734   32.6633    1.6539 N   0  0  0  0  0  0  0  0  0  0  0  0
   44.6843   32.2453    2.9537 N   0  0  0  0  0  0  0  0  0  0  0  0
   46.1150   32.1701    2.9745 N   0  0  0  0  0  0  0  0  0  0  0  0
   46.6545   33.4624    2.6641 N   0  0  0  0  0  0  0  0  0  0  0  0
   46.1825   34.4149    3.6261 N   0  0  0  0  0  0  0  0  0  0  0  0
   46.6142   34.0557    4.9599 N   0  0  0  0  0  0  0  0  0  0  0  0
   48.0462   33.9729    5.0274 N   0  0  0  0  0  0  0  0  0  0  0  0
   48.5968   35.2461    4.7161 N   0  0  0  0  0  0  0  0  0  0  0  0
   48.0924   36.1936    5.6336 N   0  0  0  0  0  0  0  0  0  0  0  0
   48.4815   35.7949    6.9469 N   0  0  0  0  0  0  0  0  0  0  0  0
   49.9132   35.7200    7.0209 N   0  0  0  0  0  0  0  0  0  0  0  0
   50.4829   36.9903    6.6859 N   0  0  0  0  0  0  0  0  0  0  0  0
   50.0056   37.9695    7.6281 N   0  0  0  0  0  0  0  0  0  0  0  0
   50.3828   37.5861    8.9728 N   0  0  0  0  0  0  0  0  0  0  0  0
   51.8168   37.4793    9.0551 N   0  0  0  0  0  0  0  0  0  0  0  0
   52.4030   38.7587    8.7403 N   0  0  0  0  0  0  0  0  0  0  0  0
   51.9308   39.7506    9.6622 N   0  0  0  0  0  0  0  0  0  0  0  0
   52.2783   39.3714   10.9793 N   0  0  0  0  0  0  0  0  0  0  0  0
   53.6932   39.2518   11.0682 N   0  0  0  0  0  0  0  0  0  0  0  0
   54.2946   40.5183   10.7386 N   0  0  0  0  0  0  0  0  0  0  0  0
   53.8097   41.5229   11.6449 N   0  0  0  0  0  0  0  0  0  0  0  0
   54.1670   41.1629   13.0038 N   0  0  0  0  0  0  0  0  0  0  0  0
   55.5967   41.0347   13.1170 N   0  0  0  0  0  0  0  0  0  0  0  0
   56.2082   42.2819   12.7681 N   0  0  0  0  0  0  0  0  0  0  0  0
   55.7292   43.2955   13.6567 N   0  0  0  0  0  0  0  0  0  0  0  0
   56.0595   42.9394   15.0004 N   0  0  0  0  0  0  0  0  0  0  0  0
   57.4778   42.8056   15.1304 N   0  0  0  0  0  0  0  0  0  0  0  0
   58.1277   44.0519   14.8040 N   0  0  0  0  0  0  0  0  0  0  0  0
   21.2214   10.3608  -29.2692 H   0  0  0  0  0  0  0  0  0  0  0  0
   21.3921    9.0526  -28.2884 H   0  0  0  0  0  0  0  0  0  0  0  0
   20.0879   10.7348  -27.2093 H   0  0  0  0  0  0  0  0  0  0  0  0
   21.4421   11.8595  -27.4213 H   0  0  0  0  0  0  0  0  0  0  0  0
   22.8940   10.3761  -26.0610 H   0  0  0  0  0  0  0  0  0  0  0  0
   21.5416    9.2446  -25.8497 H   0  0  0  0  0  0  0  0  0  0  0  0
   20.2198   11.0266  -24.7406 H   0  0  0  0  0  0  0  0  0  0  0  0
   21.5731   12.1613  -24.9497 H   0  0  0  0  0  0  0  0  0  0  0  0
   22.9256   10.7000  -23.6535 H   0  0  0  0  0  0  0  0  0  0  0  0
   20.4324   11.2842  -22.3993 H   0  0  0  0  0  0  0  0  0  0  0  0
   21.7993    9.9032  -21.1433 H   0  0  0  0  0  0  0  0  0  0  0  0
   23.8087   10.4560  -22.1357 H   0  0  0  0  0  0  0  0  0  0  0  0
   23.4152   12.7120  -22.4073 H   0  0  0  0  0  0  0  0  0  0  0  0
   22.3170   13.0639  -20.3938 H   0  0  0  0  0  0  0  0  0  0  0  0
   23.6513   11.6558  -19.1036 H   0  0  0  0  0  0  0  0  0  0  0  0
   25.7089   12.1968  -20.1094 H   0  0  0  0  0  0  0  0  0  0  0  0
   25.3237   14.4682  -20.3720 H   0  0  0  0  0  0  0  0  0  0  0  0
   24.2170   14.8407  -18.3760 H   0  0  0  0  0  0  0  0  0  0  0  0
   25.5234   13.4327  -17.0617 H   0  0  0  0  0  0  0  0  0  0  0  0
   27.5668   13.9493  -18.0580 H   0  0  0  0  0  0  0  0  0  0  0  0
   27.2074   16.1919  -18.3348 H   0  0  0  0  0  0  0  0  0  0  0  0
   26.1357   16.6027  -16.3558 H   0  0  0  0  0  0  0  0  0  0  0  0
   27.4126   15.2506  -15.0241 H   0  0  0  0  0  0  0  0  0  0  0  0
   29.4300   15.6759  -15.9951 H   0  0  0  0  0  0  0  0  0  0  0  0
   29.1069   17.9537  -16.3160 H   0  0  0  0  0  0  0  0  0  0  0  0
   28.0208   18.3979  -14.3318 H   0  0  0  0  0  0  0  0  0  0  0  0
   29.2755   17.0286  -12.9870 H   0  0  0  0  0  0  0  0  0  0  0  0
   31.3002   17.4549  -13.9448 H   0  0  0  0  0  0  0  0  0  0  0  0
   30.9902   19.6865  -14.3169 H   0  0  0  0  0  0  0  0  0  0  0  0
   29.9142   20.1520  -12.3338 H   0  0  0  0  0  0  0  0  0  0  0  0
   31.1399   18.8194  -10.9759 H   0  0  0  0  0  0  0  0  0  0  0  0
   33.1669   19.2182  -11.8994 H   0  0  0  0  0  0  0  0  0  0  0  0
   32.8868   21.4265  -12.3114 H   0  0  0  0  0  0  0  0  0  0  0  0
   31.7767   21.9420  -10.3317 H   0  0  0  0  0  0  0  0  0  0  0  0
   32.9966   20.5697   -8.9433 H   0  0  0  0  0  0  0  0  0  0  0  0
   35.0781   20.9683   -9.8601 H   0  0  0  0  0  0  0  0  0  0  0  0
   34.8213   23.2096  -10.2858 H   0  0  0  0  0  0  0  0  0  0  0  0
   33.7087   23.7553   -8.3097 H   0  0  0  0  0  0  0  0  0  0  0  0
   34.8954   22.4005   -6.9157 H   0  0  0  0  0  0  0  0  0  0  0  0
   36.9356   22.7074   -7.8377 H   0  0  0  0  0  0  0  0  0  0  0  0
   36.7284   24.9795   -8.2473 H   0  0  0  0  0  0  0  0  0  0  0  0
   35.6040   25.5389   -6.3331 H   0  0  0  0  0  0  0  0  0  0  0  0
   36.7370   24.1703   -4.8983 H   0  0  0  0  0  0  0  0  0  0  0  0
   38.8240   24.4901   -5.8298 H   0  0  0  0  0  0  0  0  0  0  0  0
   38.6434   26.7337   -6.2354 H   0  0  0  0  0  0  0  0  0  0  0  0
   37.5016   27.3196   -4.3739 H   0  0  0  0  0  0  0  0  0  0  0  0
   38.6448   25.9568   -2.9159 H   0  0  0  0  0  0  0  0  0  0  0  0
   40.7430   26.2614   -3.7896 H   0  0  0  0  0  0  0  0  0  0  0  0
   40.5614   28.4793   -4.2913 H   0  0  0  0  0  0  0  0  0  0  0  0
   39.4121   29.1059   -2.3460 H   0  0  0  0  0  0  0  0  0  0  0  0
   40.5534   27.7707   -0.8604 H   0  0  0  0  0  0  0  0  0  0  0  0
   42.6303   27.9946   -1.7493 H   0  0  0  0  0  0  0  0  0  0  0  0
   42.5113   30.2698   -2.2253 H   0  0  0  0  0  0  0  0  0  0  0  0
   41.3289   30.8732   -0.3960 H   0  0  0  0  0  0  0  0  0  0  0  0
   42.4377   29.5355    1.1309 H   0  0  0  0  0  0  0  0  0  0  0  0
   44.5328   29.7420    0.2592 H   0  0  0  0  0  0  0  0  0  0  0  0
   44.4124   32.0052   -0.2302 H   0  0  0  0  0  0  0  0  0  0  0  0
   43.2462   32.6641    1.6020 H   0  0  0  0  0  0  0  0  0  0  0  0
   44.3214   31.3131    3.1288 H   0  0  0  0  0  0  0  0  0  0  0  0
   46.4178   31.5031    2.2637 H   0  0  0  0  0  0  0  0  0  0  0  0
   46.3218   33.7580    1.7489 H   0  0  0  0  0  0  0  0  0  0  0  0
   45.1573   34.4603    3.5877 H   0  0  0  0  0  0  0  0  0  0  0  0
   46.2366   33.1332    5.1762 H   0  0  0  0  0  0  0  0  0  0  0  0
   48.3383   33.2713    4.3297 H   0  0  0  0  0  0  0  0  0  0  0  0
   48.2883   35.5230    3.7861 H   0  0  0  0  0  0  0  0  0  0  0  0
   47.0661   36.2101    5.5640 H   0  0  0  0  0  0  0  0  0  0  0  0
   48.0850   34.8662    7.1448 H   0  0  0  0  0  0  0  0  0  0  0  0
   50.2372   35.0441    6.3276 H   0  0  0  0  0  0  0  0  0  0  0  0
   50.1725   37.2285    5.7344 H   0  0  0  0  0  0  0  0  0  0  0  0
   48.9914   37.9999    7.5821 H   0  0  0  0  0  0  0  0  0  0  0  0
   49.9975   36.6651    9.1725 H   0  0  0  0  0  0  0  0  0  0  0  0
   52.1134   36.7637    8.3759 H   0  0  0  0  0  0  0  0  0  0  0  0
   52.1188   39.0164    7.7824 H   0  0  0  0  0  0  0  0  0  0  0  0
   50.9099   39.8093    9.6052 H   0  0  0  0  0  0  0  0  0  0  0  0
   51.8596   38.4674   11.1933 H   0  0  0  0  0  0  0  0  0  0  0  0
   53.9963   38.5333   10.3957 H   0  0  0  0  0  0  0  0  0  0  0  0
   53.9940   40.7561    9.7772 H   0  0  0  0  0  0  0  0  0  0  0  0
   52.7920   41.5562   11.5842 H   0  0  0  0  0  0  0  0  0  0  0  0
   53.7425   40.2546   13.1898 H   0  0  0  0  0  0  0  0  0  0  0  0
   55.8913   40.3297   12.4459 H   0  0  0  0  0  0  0  0  0  0  0  0
   55.9238   42.5146   11.8170 H   0  0  0  0  0  0  0  0  0  0  0  0
   54.7034   43.3632   13.5563 H   0  0  0  0  0  0  0  0  0  0  0  0
   55.6035   42.0387   15.2352 H   0  0  0  0  0  0  0  0  0  0  0  0
   57.8030   42.0706   14.4866 H   0  0  0  0  0  0  0  0  0  0  0  0
   57.7425   44.7752   15.4124 H   0  0  0  0  0  0  0  0  0  0  0  0
   57.8413   44.3114   13.8524 H   0  0  0  0  0  0  0  0  0  0  0  0
  1  2  1  0  0  0  0
  1 82  1  0  0  0  0
  1 83  1  0  0  0  0
  2  3  1  0  0  0  0
  2 84  1  0  0  0  0
  2 85  1  0  0  0  0
  3  4  1  0  0  0  0
  3 86  1  0  0  0  0
  3 87  1  0  0  0  0
  4  5  1  0  0  0  0
  4 88  1  0  0  0  0
  4 89  1  0  0  0  0
  5  6  1  0  0  0  0
  5 90  1  0  0  0  0
  6  7  1  0  0  0  0
  6 91  1  0  0  0  0
  7  8  1  0  0  0  0
  7 92  1  0  0  0  0
  8  9  1  0  0  0  0
  8 93  1  0  0  0  0
  9 10  1  0  0  0  0
  9 94  1  0  0  0  0
 10 11  1  0  0  0  0
 10 95  1  0  0  0  0
 11 12  1  0  0  0  0
 11 96  1  0  0  0  0
 12 13  1  0  0  0  0
 12 97  1  0  0  0  0
 13 14  1  0  0  0  0
 13 98  1  0  0  0  0
 14 15  1  0  0  0  0
 14 99  1  0  0  0  0
 15 16  1  0  0  0  0
 15100  1  0  0  0  0
 16 17  1  0  0  0  0
 16101  1  0  0  0  0
 17 18  1  0  0  0  0
 17102  1  0  0  0  0
 18 19  1  0  0  0  0
 18103  1  0  0  0  0
 19 20  1  0  0  0  0
 19104  1  0  0  0  0
 20 21  1  0  0  0  0
 20105  1  0  0  0  0
 21 22  1  0  0  0  0
 21106  1  0  0  0  0
 22 23  1  0  0  0  0
 22107  1  0  0  0  0
 23 24  1  0  0  0  0
 23108  1  0  0  0  0
 24 25  1  0  0  0  0
 24109  1  0  0  0  0
 25 26  1  0  0  0  0
 25110  1  0  0  0  0
 26 27  1  0  0  0  0
 26111  1  0  0  0  0
 27 28  1  0  0  0  0
 27112  1  0  0  0  0
 28 29  1  0  0  0  0
 28113  1  0  0  0  0
 29 30  1  0  0  0  0
 29114  1  0  0  0  0
 30 31  1  0  0  0  0
 30115  1  0  0  0  0
 31 32  1  0  0  0  0
 31116  1  0  0  0  0
 32 33  1  0  0  0  0
 32117  1  0  0  0  0
 33 34  1  0  0  0  0
 33118  1  0  0  0  0
 34 35  1  0  0  0  0
 34119  1  0  0  0  0
 35 36  1  0  0  0  0
 35120  1  0  0  0  0
 36 37  1  0  0  0  0
 36121  1  0  0  0  0
 37 38  1  0  0  0  0
 37122  1  0  0  0  0
 38 39  1  0  0  0  0
 38123  1  0  0  0  0
 39 40  1  0  0  0  0
 39124  1  0  0  0  0
 40 41  1  0  0  0  0
 40125  1  0  0  0  0
 41 42  1  0  0  0  0
 41126  1  0  0  0  0
 42 43  1  0  0  0  0
 42127  1  0  0  0  0
 43 44  1  0  0  0  0
 43128  1  0  0  0  0
 44 45  1  0  0  0  0
 44129  1  0  0  0  0
 45 46  1  0  0  0  0
 45130  1  0  0  0  0
 46 47  1  0  0  0  0
 46131  1  0  0  0  0
 47 48  1  0  0  0  0
 47132  1  0  0  0  0
 48 49  1  0  0  0  0
 48133  1  0  0  0  0
 49 50  1  0  0  0  0
 49134  1  0  0  0  0
 50 51  1  0  0  0  0
 50135  1  0  0  0  0
 51 52  1  0  0  0  0
 51136  1  0  0  0  0
 52 53  1  0  0  0  0
 52137  1  0  0  0  0
 53 54  1  0  0  0  0
 53138  1  0  0  0  0
 54 55  1  0  0  0  0
 54139  1  0  0  0  0
 55 56  1  0  0  0  0
 55140  1  0  0  0  0
 56 57  1  0  0  0  0
 56141  1  0  0  0  0
 57 58  1  0  0  0  0
 57142  1  0  0  0  0
 58 59  1  0  0  0  0
 58143  1  0  0  0  0
 59 60  1  0  0  0  0
 59144  1  0  0  0  0
 60 61  1  0  0  0  0
 60145  1  0  0  0  0
 61 62  1  0  0  0  0
 61146  1  0  0  0  0
 62 63  1  0  0  0  0
 62147  1  0  0  0  0
 63 64  1  0  0  0  0
 63148  1  0  0  0  0
 64 65  1  0  0  0  0
 64149  1  0  0  0  0
 65 66  1  0  0  0  0
 65150  1  0  0  0  0
 66 67  1  0  0  0  0
 66151  1  0  0  0  0
 67 68  1  0  0  0  0
 67152  1  0  0  0  0
 68 69  1  0  0  0  0
 68153  1  0  0  0  0
 69 70  1  0  0  0  0
 69154  1  0  0  0  0
 70 71  1  0  0  0  0
 70155  1  0  0  0  0
 71 72  1  0  0  0  0
 71156  1  0  0  0  0
 72 73  1  0  0  0  0
 72157  1  0  0  0  0
 73 74  1  0  0  0  0
 73158  1  0  0  0  0
 74 75  1  0  0  0  0
 74159  1  0  0  0  0
 75 76  1  0  0  0  0
 75160  1  0  0  0  0
 76 77  1  0  0  0  0
 76161  1  0  0  0  0
 77 78  1  0  0  0  0
 77162  1  0  0  0  0
 78 79  1  0  0  0  0
 78163  1  0  0  0  0
 79 80  1  0  0  0  0
 79164  1  0  0  0  0
 80 81  1  0  0  0  0
 80165  1  0  0  0  0
 81166  1  0  0  0  0
 81167  1  0  0  0  0
M  END
$$$$
