
 OpenBabel04232216453D

 44 45  0  0  0  0  0  0  0  0999 V2000
    4.0144    2.5740    0.2625 C   0  0  0  0  0  0  0  0  0  0  0  0
    4.8047    1.8381    1.3291 C   0  0  0  0  0  0  0  0  0  0  0  0
    4.2067    0.6430    1.5286 C   0  0  0  0  0  0  0  0  0  0  0  0
    4.9797   -0.3776    2.1317 C   0  0  0  0  0  0  0  0  0  0  0  0
    5.8563   -0.9649    1.0394 C   0  0  0  0  0  0  0  0  0  0  0  0
    5.3481    0.0167    3.3686 C   0  0  0  0  0  0  0  0  0  0  0  0
    4.4251    0.7185    4.3664 C   0  0  0  0  0  0  0  0  0  0  0  0
    6.6498    0.4592    3.4408 N   0  0  0  0  0  0  0  0  0  0  0  0
    7.4198   -0.5307    4.1133 C   0  0  0  0  0  0  0  0  0  0  0  0
    6.9916   -1.4436    4.8078 O   0  0  0  0  0  0  0  0  0  0  0  0
    8.8353   -0.4295    3.8449 C   0  0  0  0  0  0  0  0  0  0  0  0
    9.2194   -0.6117    2.4089 C   0  0  0  0  0  0  0  0  0  0  0  0
    9.3784    0.4184    4.7392 C   0  0  0  0  0  0  0  0  0  0  0  0
    8.8225    0.7347    6.1474 C   0  0  0  0  0  0  0  0  0  0  0  0
   10.1379    1.4320    4.1848 N   0  0  0  0  0  0  0  0  0  0  0  0
   11.5059    1.1797    3.7212 C   0  0  0  0  0  0  0  0  0  0  0  0
    9.3982    2.5784    3.8857 C   0  0  0  0  0  0  0  0  0  0  0  0
    9.9830    3.7116    4.7347 C   0  0  0  0  0  0  0  0  0  0  0  0
    8.1445    2.6792    3.3060 C   0  0  0  0  0  0  0  0  0  0  0  0
    6.9068    1.7743    2.7436 C   0  0  0  0  0  0  0  0  0  0  0  0
    6.0500    2.3352    1.8558 N   0  0  0  0  0  0  0  0  0  0  0  0
    3.0269    2.8704    0.6410 H   0  0  0  0  0  0  0  0  0  0  0  0
    3.8053    1.8786   -0.5713 H   0  0  0  0  0  0  0  0  0  0  0  0
    4.5243    3.4291   -0.1789 H   0  0  0  0  0  0  0  0  0  0  0  0
    3.2541    0.3377    1.1008 H   0  0  0  0  0  0  0  0  0  0  0  0
    5.2380   -1.2720    0.1847 H   0  0  0  0  0  0  0  0  0  0  0  0
    6.4174   -1.8413    1.3689 H   0  0  0  0  0  0  0  0  0  0  0  0
    6.5622   -0.2231    0.6398 H   0  0  0  0  0  0  0  0  0  0  0  0
    3.3740    0.6607    4.0817 H   0  0  0  0  0  0  0  0  0  0  0  0
    4.6910    1.7753    4.5015 H   0  0  0  0  0  0  0  0  0  0  0  0
    4.5241    0.2299    5.3461 H   0  0  0  0  0  0  0  0  0  0  0  0
    8.4007   -1.0107    1.8160 H   0  0  0  0  0  0  0  0  0  0  0  0
   10.0439   -1.3233    2.3392 H   0  0  0  0  0  0  0  0  0  0  0  0
    9.5131    0.3251    1.9177 H   0  0  0  0  0  0  0  0  0  0  0  0
    7.9371    0.1661    6.4380 H   0  0  0  0  0  0  0  0  0  0  0  0
    8.5332    1.7911    6.2358 H   0  0  0  0  0  0  0  0  0  0  0  0
    9.5930    0.5544    6.9046 H   0  0  0  0  0  0  0  0  0  0  0  0
   11.5126    0.9190    2.6606 H   0  0  0  0  0  0  0  0  0  0  0  0
   11.9521    0.3415    4.2725 H   0  0  0  0  0  0  0  0  0  0  0  0
   12.1356    2.0526    3.8663 H   0  0  0  0  0  0  0  0  0  0  0  0
    9.2008    4.2697    5.2716 H   0  0  0  0  0  0  0  0  0  0  0  0
   10.6537    4.3796    4.1964 H   0  0  0  0  0  0  0  0  0  0  0  0
   10.5862    3.2811    5.5587 H   0  0  0  0  0  0  0  0  0  0  0  0
    7.8195    3.7165    3.1667 H   0  0  0  0  0  0  0  0  0  0  0  0
  1  2  1  0  0  0  0
  1 22  1  0  0  0  0
  1 23  1  0  0  0  0
  1 24  1  0  0  0  0
  2  3  2  0  0  0  0
  2 21  1  0  0  0  0
  3  4  1  0  0  0  0
  3 25  1  0  0  0  0
  4  5  1  0  0  0  0
  4  6  2  0  0  0  0
  5 26  1  0  0  0  0
  5 27  1  0  0  0  0
  5 28  1  0  0  0  0
  6  7  1  0  0  0  0
  6  8  1  0  0  0  0
  7 29  1  0  0  0  0
  7 30  1  0  0  0  0
  7 31  1  0  0  0  0
  8  9  1  0  0  0  0
  8 20  1  0  0  0  0
  9 10  2  0  0  0  0
  9 11  1  0  0  0  0
 11 12  1  0  0  0  0
 11 13  2  0  0  0  0
 12 32  1  0  0  0  0
 12 33  1  0  0  0  0
 12 34  1  0  0  0  0
 13 14  1  0  0  0  0
 13 15  1  0  0  0  0
 14 35  1  0  0  0  0
 14 36  1  0  0  0  0
 14 37  1  0  0  0  0
 15 16  1  0  0  0  0
 15 17  1  0  0  0  0
 16 38  1  0  0  0  0
 16 39  1  0  0  0  0
 16 40  1  0  0  0  0
 17 18  1  0  0  0  0
 17 19  2  0  0  0  0
 18 41  1  0  0  0  0
 18 42  1  0  0  0  0
 18 43  1  0  0  0  0
 19 20  1  0  0  0  0
 19 44  1  0  0  0  0
 20 21  2  0  0  0  0
M  END
$$$$
