
 OpenBabel04232217033D

165164  0  0  0  0  0  0  0  0999 V2000
   25.9742    0.8722   28.4757 S   0  0  0  0  0  0  0  0  0  0  0  0
   25.4956    2.2910   27.7122 O   0  0  0  0  0  0  0  0  0  0  0  0
   24.0752    2.4689   27.8126 C   0  0  0  0  0  0  0  0  0  0  0  0
   23.6041    3.7438   27.1268 C   0  0  0  0  0  0  0  0  0  0  0  0
   23.9485    3.7133   25.6456 C   0  0  0  0  0  0  0  0  0  0  0  0
   23.4642    4.9326   25.0259 N   0  0  0  0  0  0  0  0  0  0  0  0
   23.7890    4.8934   23.6401 N   0  0  0  0  0  0  0  0  0  0  0  0
   23.3541    6.0900   23.0127 N   0  0  0  0  0  0  0  0  0  0  0  0
   23.9912    7.2282   23.5955 N   0  0  0  0  0  0  0  0  0  0  0  0
   25.4111    7.1107   23.4678 N   0  0  0  0  0  0  0  0  0  0  0  0
   25.7434    7.0440   22.0767 N   0  0  0  0  0  0  0  0  0  0  0  0
   25.2685    8.2274   21.4449 N   0  0  0  0  0  0  0  0  0  0  0  0
   25.8947    9.3699   22.0287 N   0  0  0  0  0  0  0  0  0  0  0  0
   27.3134    9.2899   21.9022 N   0  0  0  0  0  0  0  0  0  0  0  0
   27.6963    9.2213   20.5215 N   0  0  0  0  0  0  0  0  0  0  0  0
   27.2120   10.3967   19.8566 N   0  0  0  0  0  0  0  0  0  0  0  0
   27.8285   11.5704   20.4618 N   0  0  0  0  0  0  0  0  0  0  0  0
   29.2710   11.4838   20.3643 N   0  0  0  0  0  0  0  0  0  0  0  0
   29.6650   11.4062   18.9848 N   0  0  0  0  0  0  0  0  0  0  0  0
   29.1966   12.5622   18.2933 N   0  0  0  0  0  0  0  0  0  0  0  0
   29.7573   13.7178   18.9053 N   0  0  0  0  0  0  0  0  0  0  0  0
   31.1732   13.6417   18.8334 N   0  0  0  0  0  0  0  0  0  0  0  0
   31.5813   13.5601   17.4774 N   0  0  0  0  0  0  0  0  0  0  0  0
   31.1343   14.6998   16.7648 N   0  0  0  0  0  0  0  0  0  0  0  0
   31.6841   15.8936   17.3406 N   0  0  0  0  0  0  0  0  0  0  0  0
   33.1279   15.8346   17.2918 N   0  0  0  0  0  0  0  0  0  0  0  0
   33.5536   15.7344   15.9108 N   0  0  0  0  0  0  0  0  0  0  0  0
   33.0653   16.8786   15.1907 N   0  0  0  0  0  0  0  0  0  0  0  0
   33.5769   18.0503   15.8072 N   0  0  0  0  0  0  0  0  0  0  0  0
   34.9971   17.9705   15.7912 N   0  0  0  0  0  0  0  0  0  0  0  0
   35.4309   17.8836   14.4284 N   0  0  0  0  0  0  0  0  0  0  0  0
   34.9883   19.0207   13.6718 N   0  0  0  0  0  0  0  0  0  0  0  0
   35.5073   20.2372   14.2331 N   0  0  0  0  0  0  0  0  0  0  0  0
   36.9500   20.2035   14.2205 N   0  0  0  0  0  0  0  0  0  0  0  0
   37.4032   20.0841   12.8507 N   0  0  0  0  0  0  0  0  0  0  0  0
   36.9155   21.1980   12.0842 N   0  0  0  0  0  0  0  0  0  0  0  0
   37.4084   22.4103   12.6622 N   0  0  0  0  0  0  0  0  0  0  0  0
   38.8295   22.3915   12.6599 N   0  0  0  0  0  0  0  0  0  0  0  0
   39.3021   22.2626   11.3271 N   0  0  0  0  0  0  0  0  0  0  0  0
   38.8272   23.3565   10.5403 N   0  0  0  0  0  0  0  0  0  0  0  0
   39.3175   24.6005   11.0849 N   0  0  0  0  0  0  0  0  0  0  0  0
   40.7490   24.5851   11.1157 N   0  0  0  0  0  0  0  0  0  0  0  0
   41.2069   24.4034    9.7791 N   0  0  0  0  0  0  0  0  0  0  0  0
   40.7146   25.4975    8.9896 N   0  0  0  0  0  0  0  0  0  0  0  0
   41.1730   26.7360    9.5474 N   0  0  0  0  0  0  0  0  0  0  0  0
   42.6111   26.7575    9.5643 N   0  0  0  0  0  0  0  0  0  0  0  0
   43.1458   26.6457    8.2178 N   0  0  0  0  0  0  0  0  0  0  0  0
   42.6601   27.7130    7.3857 N   0  0  0  0  0  0  0  0  0  0  0  0
   43.0973   28.9468    7.9422 N   0  0  0  0  0  0  0  0  0  0  0  0
   44.5276   28.9579    7.9829 N   0  0  0  0  0  0  0  0  0  0  0  0
   45.0389   28.7674    6.6728 N   0  0  0  0  0  0  0  0  0  0  0  0
   44.5856   29.8311    5.8375 N   0  0  0  0  0  0  0  0  0  0  0  0
   45.0040   31.1035    6.3722 N   0  0  0  0  0  0  0  0  0  0  0  0
   46.4349   31.1370    6.4419 N   0  0  0  0  0  0  0  0  0  0  0  0
   46.9538   30.9254    5.1220 N   0  0  0  0  0  0  0  0  0  0  0  0
   46.4703   31.9789    4.2726 N   0  0  0  0  0  0  0  0  0  0  0  0
   46.8655   33.2440    4.8138 N   0  0  0  0  0  0  0  0  0  0  0  0
   48.3190   33.3427    4.8422 N   0  0  0  0  0  0  0  0  0  0  0  0
   48.8870   33.1475    3.5314 N   0  0  0  0  0  0  0  0  0  0  0  0
   48.4200   34.1738    2.6628 N   0  0  0  0  0  0  0  0  0  0  0  0
   48.7975   35.4366    3.1915 N   0  0  0  0  0  0  0  0  0  0  0  0
   50.2135   35.4716    3.2989 N   0  0  0  0  0  0  0  0  0  0  0  0
   50.7841   35.2842    1.9958 N   0  0  0  0  0  0  0  0  0  0  0  0
   50.2926   36.2989    1.0989 N   0  0  0  0  0  0  0  0  0  0  0  0
   50.6739   37.5851    1.6261 N   0  0  0  0  0  0  0  0  0  0  0  0
   52.1202   37.6504    1.7327 N   0  0  0  0  0  0  0  0  0  0  0  0
   52.7174   37.4402    0.4316 N   0  0  0  0  0  0  0  0  0  0  0  0
   52.2635   38.4677   -0.4797 N   0  0  0  0  0  0  0  0  0  0  0  0
   52.6295   39.7709    0.0098 N   0  0  0  0  0  0  0  0  0  0  0  0
   54.0361   39.8408    0.1546 N   0  0  0  0  0  0  0  0  0  0  0  0
   54.6297   39.6087   -1.1140 N   0  0  0  0  0  0  0  0  0  0  0  0
   54.1566   40.6081   -2.0341 N   0  0  0  0  0  0  0  0  0  0  0  0
   54.4941   41.9156   -1.5355 N   0  0  0  0  0  0  0  0  0  0  0  0
   55.9301   42.0197   -1.3923 N   0  0  0  0  0  0  0  0  0  0  0  0
   56.5693   41.7906   -2.6725 N   0  0  0  0  0  0  0  0  0  0  0  0
   56.0891   42.7662   -3.6138 N   0  0  0  0  0  0  0  0  0  0  0  0
   56.4164   44.0788   -3.1174 N   0  0  0  0  0  0  0  0  0  0  0  0
   57.8384   44.1847   -2.9526 N   0  0  0  0  0  0  0  0  0  0  0  0
   58.4898   43.9825   -4.2240 N   0  0  0  0  0  0  0  0  0  0  0  0
   58.0396   44.9521   -5.1968 N   0  0  0  0  0  0  0  0  0  0  0  0
   58.3440   46.2879   -4.7387 N   0  0  0  0  0  0  0  0  0  0  0  0
   27.3059    0.8356   28.3006 H   0  0  0  0  0  0  0  0  0  0  0  0
   23.7922    2.5191   28.8696 H   0  0  0  0  0  0  0  0  0  0  0  0
   23.5680    1.6127   27.3509 H   0  0  0  0  0  0  0  0  0  0  0  0
   24.0773    4.6097   27.6028 H   0  0  0  0  0  0  0  0  0  0  0  0
   22.5165    3.8399   27.2541 H   0  0  0  0  0  0  0  0  0  0  0  0
   23.4651    2.8464   25.1845 H   0  0  0  0  0  0  0  0  0  0  0  0
   25.0326    3.6198   25.5289 H   0  0  0  0  0  0  0  0  0  0  0  0
   23.9453    5.7337   25.4401 H   0  0  0  0  0  0  0  0  0  0  0  0
   23.3495    4.1062   23.1790 H   0  0  0  0  0  0  0  0  0  0  0  0
   22.3529    6.1952   23.1049 H   0  0  0  0  0  0  0  0  0  0  0  0
   23.7662    7.2848   24.5784 H   0  0  0  0  0  0  0  0  0  0  0  0
   25.7271    6.2614   23.9368 H   0  0  0  0  0  0  0  0  0  0  0  0
   25.2922    6.2272   21.6475 H   0  0  0  0  0  0  0  0  0  0  0  0
   24.2486    8.3280   21.5390 H   0  0  0  0  0  0  0  0  0  0  0  0
   25.6639    9.4465   23.0189 H   0  0  0  0  0  0  0  0  0  0  0  0
   27.6647    8.4584   22.3650 H   0  0  0  0  0  0  0  0  0  0  0  0
   27.2455    8.3978   20.1123 H   0  0  0  0  0  0  0  0  0  0  0  0
   26.1911   10.4494   19.9751 H   0  0  0  0  0  0  0  0  0  0  0  0
   27.5847   11.5871   21.4564 H   0  0  0  0  0  0  0  0  0  0  0  0
   29.5708   10.6346   20.8376 H   0  0  0  0  0  0  0  0  0  0  0  0
   29.2329   10.5912   18.5701 H   0  0  0  0  0  0  0  0  0  0  0  0
   28.1913   12.6316   18.3752 H   0  0  0  0  0  0  0  0  0  0  0  0
   29.4565   13.7516   19.8896 H   0  0  0  0  0  0  0  0  0  0  0  0
   31.5071   12.8033   19.3083 H   0  0  0  0  0  0  0  0  0  0  0  0
   31.1712   12.7409   17.0394 H   0  0  0  0  0  0  0  0  0  0  0  0
   30.1230   14.7522   16.8398 H   0  0  0  0  0  0  0  0  0  0  0  0
   31.3714   15.9002   18.3245 H   0  0  0  0  0  0  0  0  0  0  0  0
   33.3742   14.9663   17.8143 H   0  0  0  0  0  0  0  0  0  0  0  0
   33.1016   14.8996   15.5297 H   0  0  0  0  0  0  0  0  0  0  0  0
   32.0542   16.8868   15.2773 H   0  0  0  0  0  0  0  0  0  0  0  0
   33.2691   18.0957   16.7689 H   0  0  0  0  0  0  0  0  0  0  0  0
   35.3206   17.1447   16.3057 H   0  0  0  0  0  0  0  0  0  0  0  0
   35.0457   17.0567   13.9762 H   0  0  0  0  0  0  0  0  0  0  0  0
   33.9692   19.0704   13.6919 H   0  0  0  0  0  0  0  0  0  0  0  0
   35.1694   20.2986   15.2016 H   0  0  0  0  0  0  0  0  0  0  0  0
   37.2298   19.3670   14.7542 H   0  0  0  0  0  0  0  0  0  0  0  0
   36.9817   19.2426   12.4627 H   0  0  0  0  0  0  0  0  0  0  0  0
   35.8993   21.2044   12.1403 H   0  0  0  0  0  0  0  0  0  0  0  0
   37.0498   22.4704   13.6265 H   0  0  0  0  0  0  0  0  0  0  0  0
   39.1743   21.5912   13.1849 H   0  0  0  0  0  0  0  0  0  0  0  0
   38.9360   21.4056   10.9173 H   0  0  0  0  0  0  0  0  0  0  0  0
   37.7940   23.3231   10.5740 H   0  0  0  0  0  0  0  0  0  0  0  0
   38.9852   24.6385   12.0508 H   0  0  0  0  0  0  0  0  0  0  0  0
   41.0305   23.7735   11.6587 H   0  0  0  0  0  0  0  0  0  0  0  0
   40.8210   23.5171    9.4382 H   0  0  0  0  0  0  0  0  0  0  0  0
   39.7023   25.5183    9.0282 H   0  0  0  0  0  0  0  0  0  0  0  0
   40.8554   26.8408   10.5047 H   0  0  0  0  0  0  0  0  0  0  0  0
   42.9423   25.9791   10.1537 H   0  0  0  0  0  0  0  0  0  0  0  0
   42.8131   25.7702    7.8136 H   0  0  0  0  0  0  0  0  0  0  0  0
   41.6341   27.6657    7.3884 H   0  0  0  0  0  0  0  0  0  0  0  0
   42.7577   29.0164    8.8960 H   0  0  0  0  0  0  0  0  0  0  0  0
   44.8402   28.1837    8.5700 H   0  0  0  0  0  0  0  0  0  0  0  0
   44.6946   27.8701    6.3040 H   0  0  0  0  0  0  0  0  0  0  0  0
   43.5702   29.8259    5.8257 H   0  0  0  0  0  0  0  0  0  0  0  0
   44.5953   31.1532    7.3206 H   0  0  0  0  0  0  0  0  0  0  0  0
   46.7394   30.3568    7.0142 H   0  0  0  0  0  0  0  0  0  0  0  0
   46.6031   30.0214    4.7876 H   0  0  0  0  0  0  0  0  0  0  0  0
   45.4571   31.9786    4.2590 H   0  0  0  0  0  0  0  0  0  0  0  0
   46.4757   33.3655    5.7538 H   0  0  0  0  0  0  0  0  0  0  0  0
   48.6777   32.5957    5.4364 H   0  0  0  0  0  0  0  0  0  0  0  0
   48.5861   32.2157    3.1989 H   0  0  0  0  0  0  0  0  0  0  0  0
   47.4019   34.1298    2.6258 H   0  0  0  0  0  0  0  0  0  0  0  0
   48.4178   35.5309    4.1343 H   0  0  0  0  0  0  0  0  0  0  0  0
   50.4971   34.7085    3.9325 H   0  0  0  0  0  0  0  0  0  0  0  0
   50.4619   34.3859    1.6387 H   0  0  0  0  0  0  0  0  0  0  0  0
   49.2652   36.2067    1.0868 H   0  0  0  0  0  0  0  0  0  0  0  0
   50.2712   37.6748    2.5634 H   0  0  0  0  0  0  0  0  0  0  0  0
   52.4478   36.9001    2.3351 H   0  0  0  0  0  0  0  0  0  0  0  0
   52.4352   36.5039    0.1032 H   0  0  0  0  0  0  0  0  0  0  0  0
   51.2384   38.4093   -0.5603 H   0  0  0  0  0  0  0  0  0  0  0  0
   52.2172   39.9082    0.9334 H   0  0  0  0  0  0  0  0  0  0  0  0
   54.3337   39.1105    0.8035 H   0  0  0  0  0  0  0  0  0  0  0  0
   54.3420   38.6727   -1.4329 H   0  0  0  0  0  0  0  0  0  0  0  0
   53.1296   40.5271   -2.0829 H   0  0  0  0  0  0  0  0  0  0  0  0
   54.0841   42.0235   -0.6084 H   0  0  0  0  0  0  0  0  0  0  0  0
   56.2215   41.2842   -0.7525 H   0  0  0  0  0  0  0  0  0  0  0  0
   56.2740   40.8613   -2.9809 H   0  0  0  0  0  0  0  0  0  0  0  0
   55.0690   42.6571   -3.6835 H   0  0  0  0  0  0  0  0  0  0  0  0
   55.9508   44.2121   -2.2024 H   0  0  0  0  0  0  0  0  0  0  0  0
   58.1723   43.4825   -2.2668 H   0  0  0  0  0  0  0  0  0  0  0  0
   58.2666   43.0299   -4.5639 H   0  0  0  0  0  0  0  0  0  0  0  0
   57.0186   44.8606   -5.2725 H   0  0  0  0  0  0  0  0  0  0  0  0
   59.3454   46.3111   -4.5511 H   0  0  0  0  0  0  0  0  0  0  0  0
   57.9020   46.3686   -3.8139 H   0  0  0  0  0  0  0  0  0  0  0  0
  1  2  1  0  0  0  0
  1 82  1  0  0  0  0
  2  3  1  0  0  0  0
  3  4  1  0  0  0  0
  3 83  1  0  0  0  0
  3 84  1  0  0  0  0
  4  5  1  0  0  0  0
  4 85  1  0  0  0  0
  4 86  1  0  0  0  0
  5  6  1  0  0  0  0
  5 87  1  0  0  0  0
  5 88  1  0  0  0  0
  6  7  1  0  0  0  0
  6 89  1  0  0  0  0
  7  8  1  0  0  0  0
  7 90  1  0  0  0  0
  8  9  1  0  0  0  0
  8 91  1  0  0  0  0
  9 10  1  0  0  0  0
  9 92  1  0  0  0  0
 10 11  1  0  0  0  0
 10 93  1  0  0  0  0
 11 12  1  0  0  0  0
 11 94  1  0  0  0  0
 12 13  1  0  0  0  0
 12 95  1  0  0  0  0
 13 14  1  0  0  0  0
 13 96  1  0  0  0  0
 14 15  1  0  0  0  0
 14 97  1  0  0  0  0
 15 16  1  0  0  0  0
 15 98  1  0  0  0  0
 16 17  1  0  0  0  0
 16 99  1  0  0  0  0
 17 18  1  0  0  0  0
 17100  1  0  0  0  0
 18 19  1  0  0  0  0
 18101  1  0  0  0  0
 19 20  1  0  0  0  0
 19102  1  0  0  0  0
 20 21  1  0  0  0  0
 20103  1  0  0  0  0
 21 22  1  0  0  0  0
 21104  1  0  0  0  0
 22 23  1  0  0  0  0
 22105  1  0  0  0  0
 23 24  1  0  0  0  0
 23106  1  0  0  0  0
 24 25  1  0  0  0  0
 24107  1  0  0  0  0
 25 26  1  0  0  0  0
 25108  1  0  0  0  0
 26 27  1  0  0  0  0
 26109  1  0  0  0  0
 27 28  1  0  0  0  0
 27110  1  0  0  0  0
 28 29  1  0  0  0  0
 28111  1  0  0  0  0
 29 30  1  0  0  0  0
 29112  1  0  0  0  0
 30 31  1  0  0  0  0
 30113  1  0  0  0  0
 31 32  1  0  0  0  0
 31114  1  0  0  0  0
 32 33  1  0  0  0  0
 32115  1  0  0  0  0
 33 34  1  0  0  0  0
 33116  1  0  0  0  0
 34 35  1  0  0  0  0
 34117  1  0  0  0  0
 35 36  1  0  0  0  0
 35118  1  0  0  0  0
 36 37  1  0  0  0  0
 36119  1  0  0  0  0
 37 38  1  0  0  0  0
 37120  1  0  0  0  0
 38 39  1  0  0  0  0
 38121  1  0  0  0  0
 39 40  1  0  0  0  0
 39122  1  0  0  0  0
 40 41  1  0  0  0  0
 40123  1  0  0  0  0
 41 42  1  0  0  0  0
 41124  1  0  0  0  0
 42 43  1  0  0  0  0
 42125  1  0  0  0  0
 43 44  1  0  0  0  0
 43126  1  0  0  0  0
 44 45  1  0  0  0  0
 44127  1  0  0  0  0
 45 46  1  0  0  0  0
 45128  1  0  0  0  0
 46 47  1  0  0  0  0
 46129  1  0  0  0  0
 47 48  1  0  0  0  0
 47130  1  0  0  0  0
 48 49  1  0  0  0  0
 48131  1  0  0  0  0
 49 50  1  0  0  0  0
 49132  1  0  0  0  0
 50 51  1  0  0  0  0
 50133  1  0  0  0  0
 51 52  1  0  0  0  0
 51134  1  0  0  0  0
 52 53  1  0  0  0  0
 52135  1  0  0  0  0
 53 54  1  0  0  0  0
 53136  1  0  0  0  0
 54 55  1  0  0  0  0
 54137  1  0  0  0  0
 55 56  1  0  0  0  0
 55138  1  0  0  0  0
 56 57  1  0  0  0  0
 56139  1  0  0  0  0
 57 58  1  0  0  0  0
 57140  1  0  0  0  0
 58 59  1  0  0  0  0
 58141  1  0  0  0  0
 59 60  1  0  0  0  0
 59142  1  0  0  0  0
 60 61  1  0  0  0  0
 60143  1  0  0  0  0
 61 62  1  0  0  0  0
 61144  1  0  0  0  0
 62 63  1  0  0  0  0
 62145  1  0  0  0  0
 63 64  1  0  0  0  0
 63146  1  0  0  0  0
 64 65  1  0  0  0  0
 64147  1  0  0  0  0
 65 66  1  0  0  0  0
 65148  1  0  0  0  0
 66 67  1  0  0  0  0
 66149  1  0  0  0  0
 67 68  1  0  0  0  0
 67150  1  0  0  0  0
 68 69  1  0  0  0  0
 68151  1  0  0  0  0
 69 70  1  0  0  0  0
 69152  1  0  0  0  0
 70 71  1  0  0  0  0
 70153  1  0  0  0  0
 71 72  1  0  0  0  0
 71154  1  0  0  0  0
 72 73  1  0  0  0  0
 72155  1  0  0  0  0
 73 74  1  0  0  0  0
 73156  1  0  0  0  0
 74 75  1  0  0  0  0
 74157  1  0  0  0  0
 75 76  1  0  0  0  0
 75158  1  0  0  0  0
 76 77  1  0  0  0  0
 76159  1  0  0  0  0
 77 78  1  0  0  0  0
 77160  1  0  0  0  0
 78 79  1  0  0  0  0
 78161  1  0  0  0  0
 79 80  1  0  0  0  0
 79162  1  0  0  0  0
 80 81  1  0  0  0  0
 80163  1  0  0  0  0
 81164  1  0  0  0  0
 81165  1  0  0  0  0
M  END
$$$$
