
 OpenBabel04232217003D

219219  0  0  1  0  0  0  0  0999 V2000
  -15.7684   10.8117   -6.2148 O   0  0  0  0  0  0  0  0  0  0  0  0
  -14.9008    9.6676   -6.1852 C   0  0  3  0  0  0  0  0  0  0  0  0
  -15.4360    8.4481   -5.3886 C   0  0  0  0  0  0  0  0  0  0  0  0
  -16.0018    7.9011   -6.7120 C   0  0  0  0  0  0  0  0  0  0  0  0
  -14.9814    8.7890   -7.4588 C   0  0  3  0  0  0  0  0  0  0  0  0
  -13.7156    8.0668   -7.9020 C   0  0  0  0  0  0  0  0  0  0  0  0
  -12.8697    8.9989   -8.5724 O   0  0  0  0  0  0  0  0  0  0  0  0
  -11.6796    8.3584   -9.0040 C   0  0  0  0  0  0  0  0  0  0  0  0
  -10.8055    9.3703   -9.7177 C   0  0  0  0  0  0  0  0  0  0  0  0
   -9.5310    8.6905  -10.1785 C   0  0  0  0  0  0  0  0  0  0  0  0
   -8.6340    9.6803  -10.8952 C   0  0  0  0  0  0  0  0  0  0  0  0
   -7.3689    8.9800  -11.3418 C   0  0  0  0  0  0  0  0  0  0  0  0
   -6.4709    9.9558  -12.0585 C   0  0  0  0  0  0  0  0  0  0  0  0
   -5.2324    9.2210  -12.4841 C   0  0  0  0  0  0  0  0  0  0  0  0
   -4.4232   10.1703  -13.1469 O   0  0  0  0  0  0  0  0  0  0  0  0
   -3.2443    9.5619  -13.5782 C   0  0  0  0  0  0  0  0  0  0  0  0
   -2.4867   10.5227  -14.2406 O   0  0  0  0  0  0  0  0  0  0  0  0
   -1.3053    9.8232  -14.6576 O   0  0  0  0  0  0  0  0  0  0  0  0
   -0.4260   10.7337  -15.2862 O   0  0  0  0  0  0  0  0  0  0  0  0
   -0.1065   11.8040  -14.3709 O   0  0  0  0  0  0  0  0  0  0  0  0
    0.6918   12.7673  -15.0289 O   0  0  0  0  0  0  0  0  0  0  0  0
   -0.0167   13.2611  -16.1724 O   0  0  0  0  0  0  0  0  0  0  0  0
    0.8684   14.1420  -16.7922 C   0  0  0  0  0  0  0  0  0  0  0  0
    0.1392   14.6700  -17.9743 C   0  0  0  0  0  0  0  0  0  0  0  0
    1.0197   15.6560  -18.7022 C   0  0  0  0  0  0  0  0  0  0  0  0
    0.2755   16.1900  -19.8991 C   0  0  0  0  0  0  0  0  0  0  0  0
    1.1637   17.1762  -20.6218 C   0  0  0  0  0  0  0  0  0  0  0  0
    0.4389   17.7252  -21.8295 C   0  0  0  0  0  0  0  0  0  0  0  0
    1.3312   18.7130  -22.5516 C   0  0  0  0  0  0  0  0  0  0  0  0
    0.6056   19.2655  -23.7611 C   0  0  0  0  0  0  0  0  0  0  0  0
    1.4935   20.2542  -24.4873 C   0  0  0  0  0  0  0  0  0  0  0  0
    0.7667   20.8047  -25.6983 C   0  0  0  0  0  0  0  0  0  0  0  0
    1.6546   21.7943  -26.4258 C   0  0  0  0  0  0  0  0  0  0  0  0
    0.9284   22.3434  -27.6383 C   0  0  0  0  0  0  0  0  0  0  0  0
    1.8179   23.3320  -28.3670 C   0  0  0  0  0  0  0  0  0  0  0  0
    1.0923   23.8798  -29.5808 C   0  0  0  0  0  0  0  0  0  0  0  0
    1.9821   24.8684  -30.3094 C   0  0  0  0  0  0  0  0  0  0  0  0
    1.2563   25.4161  -31.5233 C   0  0  0  0  0  0  0  0  0  0  0  0
    2.1462   26.4049  -32.2519 C   0  0  0  0  0  0  0  0  0  0  0  0
    1.4204   26.9526  -33.4658 C   0  0  0  0  0  0  0  0  0  0  0  0
    2.3102   27.9413  -34.1944 C   0  0  0  0  0  0  0  0  0  0  0  0
    1.5837   28.4905  -35.4072 C   0  0  0  0  0  0  0  0  0  0  0  0
    2.4742   29.4778  -36.1370 C   0  0  0  0  0  0  0  0  0  0  0  0
    1.7470   30.0285  -37.3486 C   0  0  0  0  0  0  0  0  0  0  0  0
    2.6383   31.0142  -38.0795 C   0  0  0  0  0  0  0  0  0  0  0  0
    1.9118   31.5634  -39.2923 C   0  0  0  0  0  0  0  0  0  0  0  0
    2.8038   32.5476  -40.0243 C   0  0  0  0  0  0  0  0  0  0  0  0
    2.0766   33.0983  -41.2360 C   0  0  0  0  0  0  0  0  0  0  0  0
    2.9686   34.0825  -41.9680 C   0  0  0  0  0  0  0  0  0  0  0  0
    2.2414   34.6333  -43.1796 C   0  0  0  0  0  0  0  0  0  0  0  0
    3.1334   35.6175  -43.9116 C   0  0  0  0  0  0  0  0  0  0  0  0
    2.4054   36.1697  -45.1222 C   0  0  0  0  0  0  0  0  0  0  0  0
    3.2975   37.1539  -45.8542 C   0  0  0  0  0  0  0  0  0  0  0  0
    2.5702   37.7047  -47.0659 C   0  0  0  0  0  0  0  0  0  0  0  0
    3.4623   38.6889  -47.7979 C   0  0  0  0  0  0  0  0  0  0  0  0
    2.7343   39.2411  -49.0084 C   0  0  0  0  0  0  0  0  0  0  0  0
    3.6263   40.2253  -49.7404 C   0  0  0  0  0  0  0  0  0  0  0  0
    2.8976   40.7790  -50.9498 C   0  0  0  0  0  0  0  0  0  0  0  0
    3.7889   41.7648  -51.6807 C   0  0  0  0  0  0  0  0  0  0  0  0
    3.0609   42.3170  -52.8912 C   0  0  0  0  0  0  0  0  0  0  0  0
    3.9530   43.3012  -53.6232 C   0  0  0  0  0  0  0  0  0  0  0  0
    3.2257   43.8520  -54.8349 C   0  0  0  0  0  0  0  0  0  0  0  0
    4.1170   44.8377  -55.5658 C   0  0  0  0  0  0  0  0  0  0  0  0
    3.3890   45.3899  -56.7763 C   0  0  0  0  0  0  0  0  0  0  0  0
    4.2811   46.3741  -57.5083 C   0  0  0  0  0  0  0  0  0  0  0  0
    3.5538   46.9249  -58.7200 C   0  0  0  0  0  0  0  0  0  0  0  0
    4.4459   47.9090  -59.4520 C   0  0  0  0  0  0  0  0  0  0  0  0
    3.7194   48.4583  -60.6648 C   0  0  0  0  0  0  0  0  0  0  0  0
    4.6120   49.4411  -61.3980 C   0  0  0  0  0  0  0  0  0  0  0  0
    3.8849   49.9918  -62.6097 C   0  0  0  0  0  0  0  0  0  0  0  0
    4.7771   50.9761  -63.3418 C   0  0  0  0  0  0  0  0  0  0  0  0
    4.0502   51.5254  -64.5549 C   0  0  0  0  0  0  0  0  0  0  0  0
    4.9430   52.5103  -65.2873 C   0  0  0  0  0  0  0  0  0  0  0  0
    4.2152   53.0614  -66.4998 C   0  0  0  0  0  0  0  0  0  0  0  0
    5.1058   54.0483  -67.2327 C   0  0  0  0  0  0  0  0  0  0  0  0
    4.3786   54.6009  -68.4469 C   0  0  0  0  0  0  0  0  0  0  0  0
    5.2682   55.5894  -69.1825 C   0  0  0  0  0  0  0  0  0  0  0  0
    4.5475   56.1502  -70.3998 C   0  0  0  0  0  0  0  0  0  0  0  0
    5.4370   57.1357  -71.1316 C   0  0  0  0  0  0  0  0  0  0  0  0
  -15.6532   11.2286   -5.3390 H   0  0  0  0  0  0  0  0  0  0  0  0
  -13.8864    9.9650   -5.8981 H   0  0  0  0  0  0  0  0  0  0  0  0
  -16.1845    8.6763   -4.6256 H   0  0  0  0  0  0  0  0  0  0  0  0
  -14.6572    7.8227   -4.9386 H   0  0  0  0  0  0  0  0  0  0  0  0
  -17.0421    8.2016   -6.8895 H   0  0  0  0  0  0  0  0  0  0  0  0
  -15.9194    6.8224   -6.8630 H   0  0  0  0  0  0  0  0  0  0  0  0
  -15.4242    9.3038   -8.3224 H   0  0  0  0  0  0  0  0  0  0  0  0
  -13.9742    7.2637   -8.6031 H   0  0  0  0  0  0  0  0  0  0  0  0
  -13.1792    7.6312   -7.0521 H   0  0  0  0  0  0  0  0  0  0  0  0
  -11.9288    7.5368   -9.6854 H   0  0  0  0  0  0  0  0  0  0  0  0
  -11.1481    7.9553   -8.1353 H   0  0  0  0  0  0  0  0  0  0  0  0
  -10.5766   10.2080   -9.0475 H   0  0  0  0  0  0  0  0  0  0  0  0
  -11.3446    9.8003  -10.5707 H   0  0  0  0  0  0  0  0  0  0  0  0
   -9.7725    7.8554  -10.8488 H   0  0  0  0  0  0  0  0  0  0  0  0
   -8.9997    8.2663   -9.3166 H   0  0  0  0  0  0  0  0  0  0  0  0
   -8.3848   10.5136  -10.2276 H   0  0  0  0  0  0  0  0  0  0  0  0
   -9.1583   10.1014  -11.7627 H   0  0  0  0  0  0  0  0  0  0  0  0
   -7.6179    8.1457  -12.0119 H   0  0  0  0  0  0  0  0  0  0  0  0
   -6.8461    8.5569  -10.4783 H   0  0  0  0  0  0  0  0  0  0  0  0
   -6.2066   10.8013  -11.4103 H   0  0  0  0  0  0  0  0  0  0  0  0
   -6.9724   10.3919  -12.9332 H   0  0  0  0  0  0  0  0  0  0  0  0
   -5.4763    8.4060  -13.1720 H   0  0  0  0  0  0  0  0  0  0  0  0
   -4.6944    8.8245  -11.6179 H   0  0  0  0  0  0  0  0  0  0  0  0
   -3.4630    8.7442  -14.2817 H   0  0  0  0  0  0  0  0  0  0  0  0
   -2.6739    9.1667  -12.7205 H   0  0  0  0  0  0  0  0  0  0  0  0
    1.7881   13.6042  -17.0790 H   0  0  0  0  0  0  0  0  0  0  0  0
    1.1291   14.9370  -16.0767 H   0  0  0  0  0  0  0  0  0  0  0  0
   -0.8033   15.1399  -17.6517 H   0  0  0  0  0  0  0  0  0  0  0  0
   -0.1576   13.8385  -18.6332 H   0  0  0  0  0  0  0  0  0  0  0  0
    1.9431   15.1569  -19.0120 H   0  0  0  0  0  0  0  0  0  0  0  0
    1.2919   16.4691  -18.0218 H   0  0  0  0  0  0  0  0  0  0  0  0
   -0.6545   16.6782  -19.5804 H   0  0  0  0  0  0  0  0  0  0  0  0
   -0.0039   15.3672  -20.5697 H   0  0  0  0  0  0  0  0  0  0  0  0
    2.0944   16.6825  -20.9312 H   0  0  0  0  0  0  0  0  0  0  0  0
    1.4420   17.9936  -19.9436 H   0  0  0  0  0  0  0  0  0  0  0  0
   -0.4904   18.2167  -21.5163 H   0  0  0  0  0  0  0  0  0  0  0  0
    0.1619   16.9055  -22.5039 H   0  0  0  0  0  0  0  0  0  0  0  0
    2.2607   18.2198  -22.8639 H   0  0  0  0  0  0  0  0  0  0  0  0
    1.6101   19.5307  -21.8748 H   0  0  0  0  0  0  0  0  0  0  0  0
   -0.3241   19.7568  -23.4464 H   0  0  0  0  0  0  0  0  0  0  0  0
    0.3266   18.4458  -24.4356 H   0  0  0  0  0  0  0  0  0  0  0  0
    2.4238   19.7628  -24.8001 H   0  0  0  0  0  0  0  0  0  0  0  0
    1.7714   21.0740  -23.8125 H   0  0  0  0  0  0  0  0  0  0  0  0
   -0.1632   21.2957  -25.3850 H   0  0  0  0  0  0  0  0  0  0  0  0
    0.4891   19.9845  -26.3724 H   0  0  0  0  0  0  0  0  0  0  0  0
    2.5851   21.3033  -26.7376 H   0  0  0  0  0  0  0  0  0  0  0  0
    1.9310   22.6149  -25.7518 H   0  0  0  0  0  0  0  0  0  0  0  0
   -0.0012   22.8357  -27.3264 H   0  0  0  0  0  0  0  0  0  0  0  0
    0.6510   21.5228  -28.3115 H   0  0  0  0  0  0  0  0  0  0  0  0
    2.7479   22.8400  -28.6776 H   0  0  0  0  0  0  0  0  0  0  0  0
    2.0941   24.1533  -27.6940 H   0  0  0  0  0  0  0  0  0  0  0  0
    0.1623   24.3718  -29.2701 H   0  0  0  0  0  0  0  0  0  0  0  0
    0.8162   23.0585  -30.2536 H   0  0  0  0  0  0  0  0  0  0  0  0
    2.9120   24.3764  -30.6200 H   0  0  0  0  0  0  0  0  0  0  0  0
    2.2581   25.6897  -29.6365 H   0  0  0  0  0  0  0  0  0  0  0  0
    0.3264   25.9082  -31.2126 H   0  0  0  0  0  0  0  0  0  0  0  0
    0.9803   24.5949  -32.1961 H   0  0  0  0  0  0  0  0  0  0  0  0
    3.0760   25.9128  -32.5625 H   0  0  0  0  0  0  0  0  0  0  0  0
    2.4221   27.2261  -31.5790 H   0  0  0  0  0  0  0  0  0  0  0  0
    0.4905   27.4446  -33.1551 H   0  0  0  0  0  0  0  0  0  0  0  0
    1.1444   26.1314  -34.1387 H   0  0  0  0  0  0  0  0  0  0  0  0
    3.2395   27.4489  -34.5063 H   0  0  0  0  0  0  0  0  0  0  0  0
    2.5874   28.7618  -33.5212 H   0  0  0  0  0  0  0  0  0  0  0  0
    0.6551   28.9841  -35.0951 H   0  0  0  0  0  0  0  0  0  0  0  0
    1.3053   27.6699  -36.0798 H   0  0  0  0  0  0  0  0  0  0  0  0
    3.4021   28.9837  -36.4502 H   0  0  0  0  0  0  0  0  0  0  0  0
    2.7539   30.2977  -35.4640 H   0  0  0  0  0  0  0  0  0  0  0  0
    0.8198   30.5237  -37.0352 H   0  0  0  0  0  0  0  0  0  0  0  0
    1.4662   29.2084  -38.0209 H   0  0  0  0  0  0  0  0  0  0  0  0
    3.5661   30.5192  -38.3917 H   0  0  0  0  0  0  0  0  0  0  0  0
    2.9180   31.8349  -37.4076 H   0  0  0  0  0  0  0  0  0  0  0  0
    0.9847   32.0595  -38.9799 H   0  0  0  0  0  0  0  0  0  0  0  0
    1.6308   30.7426  -39.9635 H   0  0  0  0  0  0  0  0  0  0  0  0
    3.7303   32.0511  -40.3379 H   0  0  0  0  0  0  0  0  0  0  0  0
    3.0860   33.3678  -39.3527 H   0  0  0  0  0  0  0  0  0  0  0  0
    1.1501   33.5949  -40.9224 H   0  0  0  0  0  0  0  0  0  0  0  0
    1.7944   32.2782  -41.9076 H   0  0  0  0  0  0  0  0  0  0  0  0
    3.8951   33.5860  -42.2816 H   0  0  0  0  0  0  0  0  0  0  0  0
    3.2508   34.9027  -41.2964 H   0  0  0  0  0  0  0  0  0  0  0  0
    1.3149   35.1298  -42.8660 H   0  0  0  0  0  0  0  0  0  0  0  0
    1.9592   33.8132  -43.8513 H   0  0  0  0  0  0  0  0  0  0  0  0
    4.0593   35.1206  -44.2265 H   0  0  0  0  0  0  0  0  0  0  0  0
    3.4167   36.4369  -43.2397 H   0  0  0  0  0  0  0  0  0  0  0  0
    1.4796   36.6667  -44.8074 H   0  0  0  0  0  0  0  0  0  0  0  0
    2.1221   35.3503  -45.7942 H   0  0  0  0  0  0  0  0  0  0  0  0
    4.2239   36.6574  -46.1678 H   0  0  0  0  0  0  0  0  0  0  0  0
    3.5796   37.9740  -45.1826 H   0  0  0  0  0  0  0  0  0  0  0  0
    1.6437   38.2012  -46.7522 H   0  0  0  0  0  0  0  0  0  0  0  0
    2.2880   36.8846  -47.7375 H   0  0  0  0  0  0  0  0  0  0  0  0
    4.3881   38.1919  -48.1127 H   0  0  0  0  0  0  0  0  0  0  0  0
    3.7456   39.5083  -47.1259 H   0  0  0  0  0  0  0  0  0  0  0  0
    1.8084   39.7380  -48.6935 H   0  0  0  0  0  0  0  0  0  0  0  0
    2.4509   38.4217  -49.6805 H   0  0  0  0  0  0  0  0  0  0  0  0
    4.5515   39.7281  -50.0565 H   0  0  0  0  0  0  0  0  0  0  0  0
    3.9108   41.0440  -49.0680 H   0  0  0  0  0  0  0  0  0  0  0  0
    1.9716   41.2751  -50.6339 H   0  0  0  0  0  0  0  0  0  0  0  0
    2.6143   39.9605  -51.6229 H   0  0  0  0  0  0  0  0  0  0  0  0
    4.7154   41.2691  -51.9954 H   0  0  0  0  0  0  0  0  0  0  0  0
    4.0710   42.5840  -51.0080 H   0  0  0  0  0  0  0  0  0  0  0  0
    2.1350   42.8139  -52.5764 H   0  0  0  0  0  0  0  0  0  0  0  0
    2.7776   41.4976  -53.5633 H   0  0  0  0  0  0  0  0  0  0  0  0
    4.8794   42.8047  -53.9369 H   0  0  0  0  0  0  0  0  0  0  0  0
    4.2351   44.1213  -52.9516 H   0  0  0  0  0  0  0  0  0  0  0  0
    2.2985   44.3473  -54.5214 H   0  0  0  0  0  0  0  0  0  0  0  0
    2.9448   43.0320  -55.5072 H   0  0  0  0  0  0  0  0  0  0  0  0
    5.0436   44.3419  -55.8804 H   0  0  0  0  0  0  0  0  0  0  0  0
    4.3991   45.6570  -54.8932 H   0  0  0  0  0  0  0  0  0  0  0  0
    2.4632   45.8868  -56.4615 H   0  0  0  0  0  0  0  0  0  0  0  0
    3.1057   44.5705  -57.4483 H   0  0  0  0  0  0  0  0  0  0  0  0
    5.2075   45.8776  -57.8220 H   0  0  0  0  0  0  0  0  0  0  0  0
    4.5632   47.1942  -56.8367 H   0  0  0  0  0  0  0  0  0  0  0  0
    2.6273   47.4214  -58.4064 H   0  0  0  0  0  0  0  0  0  0  0  0
    3.2717   46.1047  -59.3915 H   0  0  0  0  0  0  0  0  0  0  0  0
    5.3730   47.4128  -59.7644 H   0  0  0  0  0  0  0  0  0  0  0  0
    4.7269   48.7299  -58.7808 H   0  0  0  0  0  0  0  0  0  0  0  0
    2.7929   48.9557  -60.3523 H   0  0  0  0  0  0  0  0  0  0  0  0
    3.4371   47.6373  -61.3354 H   0  0  0  0  0  0  0  0  0  0  0  0
    5.5379   48.9432  -61.7117 H   0  0  0  0  0  0  0  0  0  0  0  0
    4.8955   50.2613  -60.7271 H   0  0  0  0  0  0  0  0  0  0  0  0
    2.9585   50.4884  -62.2962 H   0  0  0  0  0  0  0  0  0  0  0  0
    3.6027   49.1716  -63.2812 H   0  0  0  0  0  0  0  0  0  0  0  0
    5.7040   50.4799  -63.6541 H   0  0  0  0  0  0  0  0  0  0  0  0
    5.0579   51.7968  -62.6706 H   0  0  0  0  0  0  0  0  0  0  0  0
    3.1237   52.0215  -64.2423 H   0  0  0  0  0  0  0  0  0  0  0  0
    3.7697   50.7047  -65.2258 H   0  0  0  0  0  0  0  0  0  0  0  0
    5.8689   52.0134  -65.6006 H   0  0  0  0  0  0  0  0  0  0  0  0
    5.2246   53.3299  -64.6155 H   0  0  0  0  0  0  0  0  0  0  0  0
    3.2881   53.5561  -66.1855 H   0  0  0  0  0  0  0  0  0  0  0  0
    3.9344   52.2408  -67.1711 H   0  0  0  0  0  0  0  0  0  0  0  0
    6.0330   53.5524  -67.5450 H   0  0  0  0  0  0  0  0  0  0  0  0
    5.3868   54.8674  -66.5595 H   0  0  0  0  0  0  0  0  0  0  0  0
    3.4514   55.0945  -68.1312 H   0  0  0  0  0  0  0  0  0  0  0  0
    4.0977   53.7793  -69.1170 H   0  0  0  0  0  0  0  0  0  0  0  0
    6.1952   55.0914  -69.4931 H   0  0  0  0  0  0  0  0  0  0  0  0
    5.5510   56.4057  -68.5063 H   0  0  0  0  0  0  0  0  0  0  0  0
    3.6222   56.6490  -70.0887 H   0  0  0  0  0  0  0  0  0  0  0  0
    4.2666   55.3343  -71.0760 H   0  0  0  0  0  0  0  0  0  0  0  0
    5.7101   57.9696  -70.4770 H   0  0  0  0  0  0  0  0  0  0  0  0
    4.9182   57.5377  -72.0055 H   0  0  0  0  0  0  0  0  0  0  0  0
    6.3575   56.6487  -71.4689 H   0  0  0  0  0  0  0  0  0  0  0  0
  1  2  1  0  0  0  0
  1 80  1  0  0  0  0
  2  3  1  0  0  0  0
  2  5  1  0  0  0  0
  2 81  1  0  0  0  0
  3  4  1  0  0  0  0
  3 82  1  0  0  0  0
  3 83  1  0  0  0  0
  4  5  1  0  0  0  0
  4 84  1  0  0  0  0
  4 85  1  0  0  0  0
  5  6  1  0  0  0  0
  5 86  1  0  0  0  0
  6  7  1  0  0  0  0
  6 87  1  0  0  0  0
  6 88  1  0  0  0  0
  7  8  1  0  0  0  0
  8  9  1  0  0  0  0
  8 89  1  0  0  0  0
  8 90  1  0  0  0  0
  9 10  1  0  0  0  0
  9 91  1  0  0  0  0
  9 92  1  0  0  0  0
 10 11  1  0  0  0  0
 10 93  1  0  0  0  0
 10 94  1  0  0  0  0
 11 12  1  0  0  0  0
 11 95  1  0  0  0  0
 11 96  1  0  0  0  0
 12 13  1  0  0  0  0
 12 97  1  0  0  0  0
 12 98  1  0  0  0  0
 13 14  1  0  0  0  0
 13 99  1  0  0  0  0
 13100  1  0  0  0  0
 14 15  1  0  0  0  0
 14101  1  0  0  0  0
 14102  1  0  0  0  0
 15 16  1  0  0  0  0
 16 17  1  0  0  0  0
 16103  1  0  0  0  0
 16104  1  0  0  0  0
 17 18  1  0  0  0  0
 18 19  1  0  0  0  0
 19 20  1  0  0  0  0
 20 21  1  0  0  0  0
 21 22  1  0  0  0  0
 22 23  1  0  0  0  0
 23 24  1  0  0  0  0
 23105  1  0  0  0  0
 23106  1  0  0  0  0
 24 25  1  0  0  0  0
 24107  1  0  0  0  0
 24108  1  0  0  0  0
 25 26  1  0  0  0  0
 25109  1  0  0  0  0
 25110  1  0  0  0  0
 26 27  1  0  0  0  0
 26111  1  0  0  0  0
 26112  1  0  0  0  0
 27 28  1  0  0  0  0
 27113  1  0  0  0  0
 27114  1  0  0  0  0
 28 29  1  0  0  0  0
 28115  1  0  0  0  0
 28116  1  0  0  0  0
 29 30  1  0  0  0  0
 29117  1  0  0  0  0
 29118  1  0  0  0  0
 30 31  1  0  0  0  0
 30119  1  0  0  0  0
 30120  1  0  0  0  0
 31 32  1  0  0  0  0
 31121  1  0  0  0  0
 31122  1  0  0  0  0
 32 33  1  0  0  0  0
 32123  1  0  0  0  0
 32124  1  0  0  0  0
 33 34  1  0  0  0  0
 33125  1  0  0  0  0
 33126  1  0  0  0  0
 34 35  1  0  0  0  0
 34127  1  0  0  0  0
 34128  1  0  0  0  0
 35 36  1  0  0  0  0
 35129  1  0  0  0  0
 35130  1  0  0  0  0
 36 37  1  0  0  0  0
 36131  1  0  0  0  0
 36132  1  0  0  0  0
 37 38  1  0  0  0  0
 37133  1  0  0  0  0
 37134  1  0  0  0  0
 38 39  1  0  0  0  0
 38135  1  0  0  0  0
 38136  1  0  0  0  0
 39 40  1  0  0  0  0
 39137  1  0  0  0  0
 39138  1  0  0  0  0
 40 41  1  0  0  0  0
 40139  1  0  0  0  0
 40140  1  0  0  0  0
 41 42  1  0  0  0  0
 41141  1  0  0  0  0
 41142  1  0  0  0  0
 42 43  1  0  0  0  0
 42143  1  0  0  0  0
 42144  1  0  0  0  0
 43 44  1  0  0  0  0
 43145  1  0  0  0  0
 43146  1  0  0  0  0
 44 45  1  0  0  0  0
 44147  1  0  0  0  0
 44148  1  0  0  0  0
 45 46  1  0  0  0  0
 45149  1  0  0  0  0
 45150  1  0  0  0  0
 46 47  1  0  0  0  0
 46151  1  0  0  0  0
 46152  1  0  0  0  0
 47 48  1  0  0  0  0
 47153  1  0  0  0  0
 47154  1  0  0  0  0
 48 49  1  0  0  0  0
 48155  1  0  0  0  0
 48156  1  0  0  0  0
 49 50  1  0  0  0  0
 49157  1  0  0  0  0
 49158  1  0  0  0  0
 50 51  1  0  0  0  0
 50159  1  0  0  0  0
 50160  1  0  0  0  0
 51 52  1  0  0  0  0
 51161  1  0  0  0  0
 51162  1  0  0  0  0
 52 53  1  0  0  0  0
 52163  1  0  0  0  0
 52164  1  0  0  0  0
 53 54  1  0  0  0  0
 53165  1  0  0  0  0
 53166  1  0  0  0  0
 54 55  1  0  0  0  0
 54167  1  0  0  0  0
 54168  1  0  0  0  0
 55 56  1  0  0  0  0
 55169  1  0  0  0  0
 55170  1  0  0  0  0
 56 57  1  0  0  0  0
 56171  1  0  0  0  0
 56172  1  0  0  0  0
 57 58  1  0  0  0  0
 57173  1  0  0  0  0
 57174  1  0  0  0  0
 58 59  1  0  0  0  0
 58175  1  0  0  0  0
 58176  1  0  0  0  0
 59 60  1  0  0  0  0
 59177  1  0  0  0  0
 59178  1  0  0  0  0
 60 61  1  0  0  0  0
 60179  1  0  0  0  0
 60180  1  0  0  0  0
 61 62  1  0  0  0  0
 61181  1  0  0  0  0
 61182  1  0  0  0  0
 62 63  1  0  0  0  0
 62183  1  0  0  0  0
 62184  1  0  0  0  0
 63 64  1  0  0  0  0
 63185  1  0  0  0  0
 63186  1  0  0  0  0
 64 65  1  0  0  0  0
 64187  1  0  0  0  0
 64188  1  0  0  0  0
 65 66  1  0  0  0  0
 65189  1  0  0  0  0
 65190  1  0  0  0  0
 66 67  1  0  0  0  0
 66191  1  0  0  0  0
 66192  1  0  0  0  0
 67 68  1  0  0  0  0
 67193  1  0  0  0  0
 67194  1  0  0  0  0
 68 69  1  0  0  0  0
 68195  1  0  0  0  0
 68196  1  0  0  0  0
 69 70  1  0  0  0  0
 69197  1  0  0  0  0
 69198  1  0  0  0  0
 70 71  1  0  0  0  0
 70199  1  0  0  0  0
 70200  1  0  0  0  0
 71 72  1  0  0  0  0
 71201  1  0  0  0  0
 71202  1  0  0  0  0
 72 73  1  0  0  0  0
 72203  1  0  0  0  0
 72204  1  0  0  0  0
 73 74  1  0  0  0  0
 73205  1  0  0  0  0
 73206  1  0  0  0  0
 74 75  1  0  0  0  0
 74207  1  0  0  0  0
 74208  1  0  0  0  0
 75 76  1  0  0  0  0
 75209  1  0  0  0  0
 75210  1  0  0  0  0
 76 77  1  0  0  0  0
 76211  1  0  0  0  0
 76212  1  0  0  0  0
 77 78  1  0  0  0  0
 77213  1  0  0  0  0
 77214  1  0  0  0  0
 78 79  1  0  0  0  0
 78215  1  0  0  0  0
 78216  1  0  0  0  0
 79217  1  0  0  0  0
 79218  1  0  0  0  0
 79219  1  0  0  0  0
M  END
$$$$
