
 OpenBabel04232216553D

 92 91  0  0  0  0  0  0  0  0999 V2000
    1.0486   -0.0293    0.2265 C   0  0  0  0  0  0  0  0  0  0  0  0
    2.5093   -0.2972    0.1598 N   0  0  0  0  0  0  0  0  0  0  0  0
    2.7523   -1.6635   -0.3318 C   0  0  0  0  0  0  0  0  0  0  0  0
    2.9543    0.5660   -0.9060 O   0  0  0  0  0  0  0  0  0  0  0  0
    4.3207    0.8667   -0.6992 C   0  0  0  0  0  0  0  0  0  0  0  0
    4.7260    2.0048   -1.5650 C   0  0  0  0  0  0  0  0  0  0  0  0
    6.1277    2.1431   -1.4299 O   0  0  0  0  0  0  0  0  0  0  0  0
    6.6392    2.9951   -2.4300 C   0  0  0  0  0  0  0  0  0  0  0  0
    8.0532    2.9417   -2.4091 O   0  0  0  0  0  0  0  0  0  0  0  0
    8.4521    3.3940   -3.7214 O   0  0  0  0  0  0  0  0  0  0  0  0
    9.8671    3.6454   -3.7300 O   0  0  0  0  0  0  0  0  0  0  0  0
   10.1192    5.0607   -3.7817 O   0  0  0  0  0  0  0  0  0  0  0  0
   11.5374    5.3057   -3.7512 O   0  0  0  0  0  0  0  0  0  0  0  0
   12.0919    5.2187   -5.0837 O   0  0  0  0  0  0  0  0  0  0  0  0
   13.5008    5.5288   -5.0457 O   0  0  0  0  0  0  0  0  0  0  0  0
   13.7315    6.8459   -5.5854 O   0  0  0  0  0  0  0  0  0  0  0  0
   14.7644    6.8023   -6.5934 O   0  0  0  0  0  0  0  0  0  0  0  0
   15.4951    8.0497   -6.5971 O   0  0  0  0  0  0  0  0  0  0  0  0
   16.8831    7.8173   -6.2863 O   0  0  0  0  0  0  0  0  0  0  0  0
   17.6694    7.8094   -7.4976 O   0  0  0  0  0  0  0  0  0  0  0  0
   18.8975    8.5329   -7.2818 O   0  0  0  0  0  0  0  0  0  0  0  0
   18.9534    9.6717   -8.1552 O   0  0  0  0  0  0  0  0  0  0  0  0
   20.1860    9.6740   -8.8956 O   0  0  0  0  0  0  0  0  0  0  0  0
   20.7922   10.9837   -8.7801 O   0  0  0  0  0  0  0  0  0  0  0  0
   22.2086   10.8682   -8.8101 O   0  0  0  0  0  0  0  0  0  0  0  0
   22.6555   10.9383  -10.1718 O   0  0  0  0  0  0  0  0  0  0  0  0
   24.0740   10.9112  -10.1738 O   0  0  0  0  0  0  0  0  0  0  0  0
   24.6022   12.2172  -10.4108 O   0  0  0  0  0  0  0  0  0  0  0  0
   25.9229   12.0069  -10.9055 O   0  0  0  0  0  0  0  0  0  0  0  0
   26.2763   13.0291  -11.8199 O   0  0  0  0  0  0  0  0  0  0  0  0
   27.3755   13.7410  -11.2573 O   0  0  0  0  0  0  0  0  0  0  0  0
   27.8464   14.6602  -12.2206 O   0  0  0  0  0  0  0  0  0  0  0  0
   29.0170   14.1485  -12.8629 O   0  0  0  0  0  0  0  0  0  0  0  0
   29.7213   15.2838  -13.3470 O   0  0  0  0  0  0  0  0  0  0  0  0
   31.1008   15.1715  -13.0485 O   0  0  0  0  0  0  0  0  0  0  0  0
   31.8243   15.5428  -14.2139 O   0  0  0  0  0  0  0  0  0  0  0  0
   32.9871   16.2640  -13.8256 O   0  0  0  0  0  0  0  0  0  0  0  0
   33.2363   17.2417  -14.8204 O   0  0  0  0  0  0  0  0  0  0  0  0
   34.5581   17.0877  -15.3403 O   0  0  0  0  0  0  0  0  0  0  0  0
   35.0733   18.4090  -15.5183 O   0  0  0  0  0  0  0  0  0  0  0  0
   36.4925   18.3839  -15.5612 O   0  0  0  0  0  0  0  0  0  0  0  0
   36.8988   18.4891  -16.9333 O   0  0  0  0  0  0  0  0  0  0  0  0
   38.2989   18.7464  -16.9839 O   0  0  0  0  0  0  0  0  0  0  0  0
   38.5385   20.1560  -16.8213 O   0  0  0  0  0  0  0  0  0  0  0  0
   39.9325   20.4157  -17.0209 O   0  0  0  0  0  0  0  0  0  0  0  0
   40.2090   20.4182  -18.4338 O   0  0  0  0  0  0  0  0  0  0  0  0
   41.6134   20.5306  -18.6503 O   0  0  0  0  0  0  0  0  0  0  0  0
   41.9740   21.9105  -18.5681 O   0  0  0  0  0  0  0  0  0  0  0  0
   43.3817   22.0138  -18.5702 O   0  0  0  0  0  0  0  0  0  0  0  0
   43.8247   22.4000  -19.8900 O   0  0  0  0  0  0  0  0  0  0  0  0
   45.2338   22.5554  -19.7000 O   0  0  0  0  0  0  0  0  0  0  0  0
   45.6783   23.7839  -20.2421 O   0  0  0  0  0  0  0  0  0  0  0  0
   46.9377   23.4443  -20.7859 O   0  0  0  0  0  0  0  0  0  0  0  0
   47.3639   24.3501  -21.7708 O   0  0  0  0  0  0  0  0  0  0  0  0
   48.6747   24.7022  -21.3817 O   0  0  0  0  0  0  0  0  0  0  0  0
   49.1541   25.7736  -22.1602 O   0  0  0  0  0  0  0  0  0  0  0  0
   50.5608   25.8290  -21.9582 O   0  0  0  0  0  0  0  0  0  0  0  0
   51.1297   26.7563  -22.8689 O   0  0  0  0  0  0  0  0  0  0  0  0
   52.2253   26.1352  -23.5438 O   0  0  0  0  0  0  0  0  0  0  0  0
   52.8664   27.0997  -24.3769 O   0  0  0  0  0  0  0  0  0  0  0  0
   54.0505   27.5858  -23.7321 O   0  0  0  0  0  0  0  0  0  0  0  0
   54.5544   28.7008  -24.4719 O   0  0  0  0  0  0  0  0  0  0  0  0
   55.9881   28.6957  -24.4688 O   0  0  0  0  0  0  0  0  0  0  0  0
   56.4531   29.5616  -25.5121 O   0  0  0  0  0  0  0  0  0  0  0  0
   57.6320   29.0220  -26.1316 O   0  0  0  0  0  0  0  0  0  0  0  0
   58.2969   30.0678  -26.8654 O   0  0  0  0  0  0  0  0  0  0  0  0
   59.3303   30.6740  -26.0582 O   0  0  0  0  0  0  0  0  0  0  0  0
   60.0788   31.6189  -26.8540 O   0  0  0  0  0  0  0  0  0  0  0  0
   61.1152   30.9352  -27.5992 O   0  0  0  0  0  0  0  0  0  0  0  0
   61.8045   31.8641  -28.4685 O   0  0  0  0  0  0  0  0  0  0  0  0
   62.9303   32.4556  -27.7743 O   0  0  0  0  0  0  0  0  0  0  0  0
   63.5803   33.4469  -28.6075 O   0  0  0  0  0  0  0  0  0  0  0  0
   64.7873   32.8976  -29.1934 O   0  0  0  0  0  0  0  0  0  0  0  0
   65.4097   33.8581  -30.0846 O   0  0  0  0  0  0  0  0  0  0  0  0
   66.6784   34.3058  -29.5409 O   0  0  0  0  0  0  0  0  0  0  0  0
   67.2619   35.3332  -30.3822 O   0  0  0  0  0  0  0  0  0  0  0  0
   68.6096   34.9683  -30.7791 O   0  0  0  0  0  0  0  0  0  0  0  0
   69.1894   36.0107  -31.6053 O   0  0  0  0  0  0  0  0  0  0  0  0
   70.6060   36.1558  -31.3338 O   0  0  0  0  0  0  0  0  0  0  0  0
    0.5812   -0.6820    0.9039 H   0  0  0  0  0  0  0  0  0  0  0  0
    0.5836   -0.1963   -0.7428 H   0  0  0  0  0  0  0  0  0  0  0  0
    0.8488    1.0147    0.5041 H   0  0  0  0  0  0  0  0  0  0  0  0
    2.2499   -2.4041    0.2928 H   0  0  0  0  0  0  0  0  0  0  0  0
    3.8216   -1.8572   -0.2526 H   0  0  0  0  0  0  0  0  0  0  0  0
    2.4531   -1.7888   -1.3725 H   0  0  0  0  0  0  0  0  0  0  0  0
    4.9025   -0.0227   -0.9732 H   0  0  0  0  0  0  0  0  0  0  0  0
    4.5286    1.0950    0.3533 H   0  0  0  0  0  0  0  0  0  0  0  0
    4.2306    2.9199   -1.2364 H   0  0  0  0  0  0  0  0  0  0  0  0
    4.4292    1.8159   -2.6128 H   0  0  0  0  0  0  0  0  0  0  0  0
    6.3177    4.0219   -2.2367 H   0  0  0  0  0  0  0  0  0  0  0  0
    6.2739    2.6854   -3.4216 H   0  0  0  0  0  0  0  0  0  0  0  0
   70.7847   36.7605  -32.0744 H   0  0  0  0  0  0  0  0  0  0  0  0
  1  2  1  0  0  0  0
  1 80  1  0  0  0  0
  1 81  1  0  0  0  0
  1 82  1  0  0  0  0
  2  3  1  0  0  0  0
  2  4  1  0  0  0  0
  3 83  1  0  0  0  0
  3 84  1  0  0  0  0
  3 85  1  0  0  0  0
  4  5  1  0  0  0  0
  5  6  1  0  0  0  0
  5 86  1  0  0  0  0
  5 87  1  0  0  0  0
  6  7  1  0  0  0  0
  6 88  1  0  0  0  0
  6 89  1  0  0  0  0
  7  8  1  0  0  0  0
  8  9  1  0  0  0  0
  8 90  1  0  0  0  0
  8 91  1  0  0  0  0
  9 10  1  0  0  0  0
 10 11  1  0  0  0  0
 11 12  1  0  0  0  0
 12 13  1  0  0  0  0
 13 14  1  0  0  0  0
 14 15  1  0  0  0  0
 15 16  1  0  0  0  0
 16 17  1  0  0  0  0
 17 18  1  0  0  0  0
 18 19  1  0  0  0  0
 19 20  1  0  0  0  0
 20 21  1  0  0  0  0
 21 22  1  0  0  0  0
 22 23  1  0  0  0  0
 23 24  1  0  0  0  0
 24 25  1  0  0  0  0
 25 26  1  0  0  0  0
 26 27  1  0  0  0  0
 27 28  1  0  0  0  0
 28 29  1  0  0  0  0
 29 30  1  0  0  0  0
 30 31  1  0  0  0  0
 31 32  1  0  0  0  0
 32 33  1  0  0  0  0
 33 34  1  0  0  0  0
 34 35  1  0  0  0  0
 35 36  1  0  0  0  0
 36 37  1  0  0  0  0
 37 38  1  0  0  0  0
 38 39  1  0  0  0  0
 39 40  1  0  0  0  0
 40 41  1  0  0  0  0
 41 42  1  0  0  0  0
 42 43  1  0  0  0  0
 43 44  1  0  0  0  0
 44 45  1  0  0  0  0
 45 46  1  0  0  0  0
 46 47  1  0  0  0  0
 47 48  1  0  0  0  0
 48 49  1  0  0  0  0
 49 50  1  0  0  0  0
 50 51  1  0  0  0  0
 51 52  1  0  0  0  0
 52 53  1  0  0  0  0
 53 54  1  0  0  0  0
 54 55  1  0  0  0  0
 55 56  1  0  0  0  0
 56 57  1  0  0  0  0
 57 58  1  0  0  0  0
 58 59  1  0  0  0  0
 59 60  1  0  0  0  0
 60 61  1  0  0  0  0
 61 62  1  0  0  0  0
 62 63  1  0  0  0  0
 63 64  1  0  0  0  0
 64 65  1  0  0  0  0
 65 66  1  0  0  0  0
 66 67  1  0  0  0  0
 67 68  1  0  0  0  0
 68 69  1  0  0  0  0
 69 70  1  0  0  0  0
 70 71  1  0  0  0  0
 71 72  1  0  0  0  0
 72 73  1  0  0  0  0
 73 74  1  0  0  0  0
 74 75  1  0  0  0  0
 75 76  1  0  0  0  0
 76 77  1  0  0  0  0
 77 78  1  0  0  0  0
 78 79  1  0  0  0  0
 79 92  1  0  0  0  0
M  END
$$$$
