
 OpenBabel04232216433D

 31 31  0  0  0  0  0  0  0  0999 V2000
    4.1928    2.4944    1.4260 C   0  0  0  0  0  0  0  0  0  0  0  0
    3.5905    1.4802    0.4914 C   0  0  0  0  0  0  0  0  0  0  0  0
    4.0260    1.4484   -0.7944 C   0  0  0  0  0  0  0  0  0  0  0  0
    5.4527    1.0986   -0.9771 C   0  0  0  0  0  0  0  0  0  0  0  0
    6.3125    2.1105   -0.7889 C   0  0  0  0  0  0  0  0  0  0  0  0
    7.7203    2.1641   -0.4990 C   0  0  0  0  0  0  0  0  0  0  0  0
    8.1402    3.3918   -0.1463 C   0  0  0  0  0  0  0  0  0  0  0  0
    9.1608    3.6424    0.8340 C   0  0  0  0  0  0  0  0  0  0  0  0
    8.8518    4.6314    1.6861 C   0  0  0  0  0  0  0  0  0  0  0  0
    9.0212    4.4680    3.0971 C   0  0  0  0  0  0  0  0  0  0  0  0
    8.3145    3.5922    3.8513 C   0  0  0  0  0  0  0  0  0  0  0  0
    7.3057    2.5700    3.5607 C   0  0  0  0  0  0  0  0  0  0  0  0
    6.0643    2.5304    3.0413 C   0  0  0  0  0  0  0  0  0  0  0  0
    4.6956    2.1210    2.6306 C   0  0  0  0  0  0  0  0  0  0  0  0
    3.9649    1.0443    3.4057 C   0  0  0  0  0  0  0  0  0  0  0  0
    3.5193    3.3632    1.4648 H   0  0  0  0  0  0  0  0  0  0  0  0
    3.5844    0.4902    0.9519 H   0  0  0  0  0  0  0  0  0  0  0  0
    3.8490    2.3741   -1.3593 H   0  0  0  0  0  0  0  0  0  0  0  0
    5.7415    0.0543   -1.0778 H   0  0  0  0  0  0  0  0  0  0  0  0
    5.8255    3.0730   -0.6213 H   0  0  0  0  0  0  0  0  0  0  0  0
    8.2819    1.2608   -0.2885 H   0  0  0  0  0  0  0  0  0  0  0  0
    7.4493    4.2301   -0.2736 H   0  0  0  0  0  0  0  0  0  0  0  0
    9.8416    2.8415    1.1027 H   0  0  0  0  0  0  0  0  0  0  0  0
    8.1324    5.4081    1.4450 H   0  0  0  0  0  0  0  0  0  0  0  0
    9.7769    5.0971    3.5690 H   0  0  0  0  0  0  0  0  0  0  0  0
    8.5864    3.5842    4.9005 H   0  0  0  0  0  0  0  0  0  0  0  0
    7.7326    1.6270    3.9493 H   0  0  0  0  0  0  0  0  0  0  0  0
    6.1718    1.4145    3.0177 H   0  0  0  0  0  0  0  0  0  0  0  0
    4.3551    0.0489    3.1661 H   0  0  0  0  0  0  0  0  0  0  0  0
    2.8931    1.0477    3.1579 H   0  0  0  0  0  0  0  0  0  0  0  0
    4.0259    1.2133    4.4833 H   0  0  0  0  0  0  0  0  0  0  0  0
  1  2  1  0  0  0  0
  1 14  2  0  0  0  0
  1 16  1  0  0  0  0
  2  3  2  0  0  0  0
  2 17  1  0  0  0  0
  3  4  1  0  0  0  0
  3 18  1  0  0  0  0
  4  5  2  0  0  0  0
  4 19  1  0  0  0  0
  5  6  1  0  0  0  0
  5 20  1  0  0  0  0
  6  7  2  0  0  0  0
  6 21  1  0  0  0  0
  7  8  1  0  0  0  0
  7 22  1  0  0  0  0
  8  9  2  0  0  0  0
  8 23  1  0  0  0  0
  9 10  1  0  0  0  0
  9 24  1  0  0  0  0
 10 11  2  0  0  0  0
 10 25  1  0  0  0  0
 11 12  1  0  0  0  0
 11 26  1  0  0  0  0
 12 13  2  0  0  0  0
 12 27  1  0  0  0  0
 13 14  1  0  0  0  0
 13 28  1  0  0  0  0
 14 15  1  0  0  0  0
 15 29  1  0  0  0  0
 15 30  1  0  0  0  0
 15 31  1  0  0  0  0
M  END
$$$$
