
 OpenBabel04232216503D

 94 95  0  0  1  0  0  0  0  0999 V2000
    4.4048   -2.2897    0.1600 C   0  0  0  0  0  0  0  0  0  0  0  0
    6.2802   -3.4667    0.5122 C   0  0  0  0  0  0  0  0  0  0  0  0
    6.7752   -3.0710    1.8588 C   0  0  0  0  0  0  0  0  0  0  0  0
    8.6951   -3.4303    2.4232 C   0  0  0  0  0  0  0  0  0  0  0  0
   10.0000   -4.6820    3.0488 C   0  0  0  0  0  0  0  0  0  0  0  0
   11.7524   -5.9400    3.2317 O   0  0  0  0  0  0  0  0  0  0  0  0
   13.8091   -6.8471    3.0637 C   0  0  3  0  0  0  0  0  0  0  0  0
   12.3209   -5.5403    2.5205 C   0  0  0  0  0  0  0  0  0  0  0  0
   11.7828   -4.6352    1.4105 C   0  0  0  0  0  0  0  0  0  0  0  0
   12.3021   -3.2438    1.3689 C   0  0  0  0  0  0  0  0  0  0  0  0
   13.3902   -3.9606    2.0550 C   0  0  0  0  0  0  0  0  0  0  0  0
   14.7498   -3.9782    1.9944 C   0  0  0  0  0  0  0  0  0  0  0  0
   15.1841   -5.1849    2.7261 C   0  0  0  0  0  0  0  0  0  0  0  0
   16.5490   -4.9434    2.5455 C   0  0  0  0  0  0  0  0  0  0  0  0
   17.0210   -6.1564    3.1068 C   0  0  0  0  0  0  0  0  0  0  0  0
   18.4214   -5.9883    3.0642 C   0  0  0  0  0  0  0  0  0  0  0  0
   18.9022   -7.1852    3.6095 C   0  0  0  0  0  0  0  0  0  0  0  0
   20.3311   -6.9405    3.3299 C   0  0  0  0  0  0  0  0  0  0  0  0
   21.2288   -7.9838    3.6617 C   0  0  0  0  0  0  0  0  0  0  0  0
   22.6660   -7.5349    3.6095 C   0  0  0  0  0  0  0  0  0  0  0  0
   23.3200   -8.6376    4.2921 C   0  0  0  0  0  0  0  0  0  0  0  0
   24.7531   -8.7845    4.5755 C   0  0  0  0  0  0  0  0  0  0  0  0
   25.0088   -9.8706    5.6512 C   0  0  0  0  0  0  0  0  0  0  0  0
   26.6470   -9.7215    5.4122 C   0  0  0  0  0  0  0  0  0  0  0  0
   27.2313  -10.8612    6.2302 C   0  0  0  0  0  0  0  0  0  0  0  0
   28.6999  -10.5650    5.5268 C   0  0  0  0  0  0  0  0  0  0  0  0
   27.6765  -12.1848    5.1556 C   0  0  0  0  0  0  0  0  0  0  0  0
   25.6143  -11.4686    4.3431 C   0  0  0  0  0  0  0  0  0  0  0  0
   23.2184  -10.9140    3.7486 C   0  0  0  0  0  0  0  0  0  0  0  0
   20.7533  -10.1597    3.3773 C   0  0  0  0  0  0  0  0  0  0  0  0
   18.3401   -9.2962    3.0950 C   0  0  0  0  0  0  0  0  0  0  0  0
   15.8044   -8.2095    2.7453 C   0  0  3  0  0  0  0  0  0  0  0  0
   13.7892   -7.4075    1.5674 C   0  0  0  0  0  0  0  0  0  0  0  0
   11.8842   -6.8161    0.9673 C   0  0  0  0  0  0  0  0  0  0  0  0
    9.8284   -5.6696    0.6263 C   0  0  0  0  0  0  0  0  0  0  0  0
    8.2472   -4.4502    0.2581 C   0  0  0  0  0  0  0  0  0  0  0  0
    2.8806   -2.2303    0.4640 H   0  0  0  0  0  0  0  0  0  0  0  0
    3.3801   -1.5341   -0.7489 H   0  0  0  0  0  0  0  0  0  0  0  0
    3.5812   -1.0162    0.5410 H   0  0  0  0  0  0  0  0  0  0  0  0
    5.5095   -2.3449    1.9628 H   0  0  0  0  0  0  0  0  0  0  0  0
    8.1534   -2.2816    1.7050 H   0  0  0  0  0  0  0  0  0  0  0  0
    8.7658   -4.8508    2.6750 H   0  0  0  0  0  0  0  0  0  0  0  0
   13.3493   -6.9657    4.0752 H   0  0  0  0  0  0  0  0  0  0  0  0
   11.7571   -4.3037    2.8750 H   0  0  0  0  0  0  0  0  0  0  0  0
   10.8927   -5.1065    1.6962 H   0  0  0  0  0  0  0  0  0  0  0  0
   11.8306   -2.5418    2.0755 H   0  0  0  0  0  0  0  0  0  0  0  0
   12.0696   -3.1348    0.3182 H   0  0  0  0  0  0  0  0  0  0  0  0
   13.4723   -5.0453    1.3324 H   0  0  0  0  0  0  0  0  0  0  0  0
   13.1734   -4.0958    3.3716 H   0  0  0  0  0  0  0  0  0  0  0  0
   14.6012   -3.2218    2.7277 H   0  0  0  0  0  0  0  0  0  0  0  0
   14.6516   -4.2029    0.9122 H   0  0  0  0  0  0  0  0  0  0  0  0
   15.1905   -6.0481    2.0307 H   0  0  0  0  0  0  0  0  0  0  0  0
   14.9033   -5.4177    3.8385 H   0  0  0  0  0  0  0  0  0  0  0  0
   16.6267   -4.1131    3.2035 H   0  0  0  0  0  0  0  0  0  0  0  0
   16.5829   -5.0319    1.4233 H   0  0  0  0  0  0  0  0  0  0  0  0
   16.9347   -6.7201    2.1521 H   0  0  0  0  0  0  0  0  0  0  0  0
   16.5754   -6.5554    4.0674 H   0  0  0  0  0  0  0  0  0  0  0  0
   18.7305   -5.2087    3.6923 H   0  0  0  0  0  0  0  0  0  0  0  0
   18.6776   -6.0931    1.9792 H   0  0  0  0  0  0  0  0  0  0  0  0
   18.3019   -7.6349    2.8009 H   0  0  0  0  0  0  0  0  0  0  0  0
   18.6225   -7.5763    4.6322 H   0  0  0  0  0  0  0  0  0  0  0  0
   20.6675   -6.1887    4.0130 H   0  0  0  0  0  0  0  0  0  0  0  0
   20.5371   -6.9221    2.2487 H   0  0  0  0  0  0  0  0  0  0  0  0
   20.9452   -8.5801    2.7157 H   0  0  0  0  0  0  0  0  0  0  0  0
   20.9926   -8.2812    4.7300 H   0  0  0  0  0  0  0  0  0  0  0  0
   22.9714   -6.8255    4.3389 H   0  0  0  0  0  0  0  0  0  0  0  0
   23.0929   -7.5769    2.5727 H   0  0  0  0  0  0  0  0  0  0  0  0
   23.1405   -9.1063    3.2646 H   0  0  0  0  0  0  0  0  0  0  0  0
   22.8406   -9.0326    5.2552 H   0  0  0  0  0  0  0  0  0  0  0  0
   25.2215   -7.9100    4.9937 H   0  0  0  0  0  0  0  0  0  0  0  0
   25.1829   -8.9808    3.5502 H   0  0  0  0  0  0  0  0  0  0  0  0
   24.2002  -10.8224    5.7532 H   0  0  0  0  0  0  0  0  0  0  0  0
   25.2295  -10.3134    6.6220 H   0  0  0  0  0  0  0  0  0  0  0  0
   27.2649   -8.8775    5.7455 H   0  0  0  0  0  0  0  0  0  0  0  0
   27.0039   -9.6791    4.2361 H   0  0  0  0  0  0  0  0  0  0  0  0
   26.3808  -11.9271    6.1249 H   0  0  0  0  0  0  0  0  0  0  0  0
   27.5018  -11.3506    7.2038 H   0  0  0  0  0  0  0  0  0  0  0  0
   29.5572  -10.1929    6.2593 H   0  0  0  0  0  0  0  0  0  0  0  0
   29.1874  -10.2886    4.5262 H   0  0  0  0  0  0  0  0  0  0  0  0
   28.9998  -12.8017    5.0377 H   0  0  0  0  0  0  0  0  0  0  0  0
   28.7246  -12.1972    6.3753 H   0  0  0  0  0  0  0  0  0  0  0  0
   27.1819  -11.3825    4.2622 H   0  0  0  0  0  0  0  0  0  0  0  0
   26.9752  -11.4972    3.5025 H   0  0  0  0  0  0  0  0  0  0  0  0
   24.5861  -11.2934    3.0829 H   0  0  0  0  0  0  0  0  0  0  0  0
   24.3951  -11.4708    4.5591 H   0  0  0  0  0  0  0  0  0  0  0  0
   21.9121  -10.0461    4.2627 H   0  0  0  0  0  0  0  0  0  0  0  0
   22.0433  -10.4479    2.5573 H   0  0  0  0  0  0  0  0  0  0  0  0
   18.8870  -10.0286    4.0542 H   0  0  0  0  0  0  0  0  0  0  0  0
   19.2862   -8.9293    4.0498 H   0  0  0  0  0  0  0  0  0  0  0  0
   15.5331   -9.1712    2.5690 H   0  0  0  0  0  0  0  0  0  0  0  0
   12.6904   -7.8921    2.3174 H   0  0  0  0  0  0  0  0  0  0  0  0
   10.6937   -7.0971    1.3364 H   0  0  0  0  0  0  0  0  0  0  0  0
    8.6191   -5.9070    1.0190 H   0  0  0  0  0  0  0  0  0  0  0  0
    7.5154   -3.4229   -0.3733 H   0  0  0  0  0  0  0  0  0  0  0  0
  1  2  1  0  0  0  0
  1 37  1  0  0  0  0
  1 38  1  0  0  0  0
  1 39  1  0  0  0  0
  2  3  2  3  0  0  0
  2 36  1  0  0  0  0
  3  4  1  0  0  0  0
  3 40  1  0  0  0  0
  4  5  2  3  0  0  0
  4 41  1  0  0  0  0
  5  6  1  0  0  0  0
  5 42  1  0  0  0  0
  6  7  1  0  0  0  0
  7  8  1  0  0  0  0
  7 32  1  0  0  0  0
  7 43  1  0  0  0  0
  8  9  2  3  0  0  0
  8 44  1  0  0  0  0
  9 10  1  0  0  0  0
  9 45  1  0  0  0  0
 10 11  1  0  0  0  0
 10 46  1  0  0  0  0
 10 47  1  0  0  0  0
 11 12  1  0  0  0  0
 11 48  1  0  0  0  0
 11 49  1  0  0  0  0
 12 13  1  0  0  0  0
 12 50  1  0  0  0  0
 12 51  1  0  0  0  0
 13 14  1  0  0  0  0
 13 52  1  0  0  0  0
 13 53  1  0  0  0  0
 14 15  1  0  0  0  0
 14 54  1  0  0  0  0
 14 55  1  0  0  0  0
 15 16  1  0  0  0  0
 15 56  1  0  0  0  0
 15 57  1  0  0  0  0
 16 17  1  0  0  0  0
 16 58  1  0  0  0  0
 16 59  1  0  0  0  0
 17 18  1  0  0  0  0
 17 60  1  0  0  0  0
 17 61  1  0  0  0  0
 18 19  1  0  0  0  0
 18 62  1  0  0  0  0
 18 63  1  0  0  0  0
 19 20  1  0  0  0  0
 19 64  1  0  0  0  0
 19 65  1  0  0  0  0
 20 21  1  0  0  0  0
 20 66  1  0  0  0  0
 20 67  1  0  0  0  0
 21 22  1  0  0  0  0
 21 68  1  0  0  0  0
 21 69  1  0  0  0  0
 22 23  1  0  0  0  0
 22 70  1  0  0  0  0
 22 71  1  0  0  0  0
 23 24  1  0  0  0  0
 23 72  1  0  0  0  0
 23 73  1  0  0  0  0
 24 25  1  0  0  0  0
 24 74  1  0  0  0  0
 24 75  1  0  0  0  0
 25 26  1  0  0  0  0
 25 76  1  0  0  0  0
 25 77  1  0  0  0  0
 26 27  1  0  0  0  0
 26 78  1  0  0  0  0
 26 79  1  0  0  0  0
 27 28  1  0  0  0  0
 27 80  1  0  0  0  0
 27 81  1  0  0  0  0
 28 29  1  0  0  0  0
 28 82  1  0  0  0  0
 28 83  1  0  0  0  0
 29 30  1  0  0  0  0
 29 84  1  0  0  0  0
 29 85  1  0  0  0  0
 30 31  1  0  0  0  0
 30 86  1  0  0  0  0
 30 87  1  0  0  0  0
 31 32  1  0  0  0  0
 31 88  1  0  0  0  0
 31 89  1  0  0  0  0
 32 33  1  0  0  0  0
 32 90  1  0  0  0  0
 33 34  2  3  0  0  0
 33 91  1  0  0  0  0
 34 35  1  0  0  0  0
 34 92  1  0  0  0  0
 35 36  2  3  0  0  0
 35 93  1  0  0  0  0
 36 94  1  0  0  0  0
M  END
$$$$
