
 OpenBabel04232216443D

 60 61  0  0  0  0  0  0  0  0999 V2000
    6.2143   -0.3353    2.5736 C   0  0  0  0  0  0  0  0  0  0  0  0
    6.6489   -1.8795    3.2130 C   0  0  0  0  0  0  0  0  0  0  0  0
    5.0054   -2.3814    2.5284 C   0  0  0  0  0  0  0  0  0  0  0  0
    3.6448   -2.1838    2.8528 C   0  0  0  0  0  0  0  0  0  0  0  0
    2.2460   -2.0328    1.9512 C   0  0  0  0  0  0  0  0  0  0  0  0
    5.1137   -2.6747    1.0192 C   0  0  0  0  0  0  0  0  0  0  0  0
    5.4494   -4.1610    1.1137 C   0  0  0  0  0  0  0  0  0  0  0  0
    6.8818   -4.0179    1.5658 C   0  0  0  0  0  0  0  0  0  0  0  0
    7.9875   -4.9651    2.0266 C   0  0  0  0  0  0  0  0  0  0  0  0
    9.3651   -4.1910    1.6795 C   0  0  0  0  0  0  0  0  0  0  0  0
   10.5772   -4.6088    2.5104 C   0  0  0  0  0  0  0  0  0  0  0  0
   11.0767   -5.7286    2.2754 O   0  0  0  0  0  0  0  0  0  0  0  0
   10.9859   -3.7366    3.9353 C   0  0  0  0  0  0  0  0  0  0  0  0
    9.5655   -3.6022    4.3777 C   0  0  0  0  0  0  0  0  0  0  0  0
    9.8238   -5.3254    5.1636 C   0  0  0  0  0  0  0  0  0  0  0  0
   11.0050   -6.8370    5.2034 C   0  0  0  0  0  0  0  0  0  0  0  0
   12.5403   -7.4273    4.4500 C   0  0  0  0  0  0  0  0  0  0  0  0
   13.3007   -8.6655    5.1501 C   0  0  0  0  0  0  0  0  0  0  0  0
   14.8669   -8.7050    5.0492 C   0  0  0  0  0  0  0  0  0  0  0  0
   15.3631   -8.1519    6.3745 C   0  0  0  0  0  0  0  0  0  0  0  0
   15.1350   -6.4216    6.3722 C   0  0  0  0  0  0  0  0  0  0  0  0
   13.6181   -5.4537    6.1107 C   0  0  0  0  0  0  0  0  0  0  0  0
   12.6409   -4.5636    4.6991 C   0  0  0  0  0  0  0  0  0  0  0  0
    8.1449   -2.5196    3.7084 C   0  0  0  0  0  0  0  0  0  0  0  0
    5.0469   -0.2322    2.3179 H   0  0  0  0  0  0  0  0  0  0  0  0
    6.4883   -0.1269    1.4760 H   0  0  0  0  0  0  0  0  0  0  0  0
    6.2135    0.5913    3.1526 H   0  0  0  0  0  0  0  0  0  0  0  0
    3.3130   -3.1665    3.2240 H   0  0  0  0  0  0  0  0  0  0  0  0
    2.1708   -1.1863    1.2481 H   0  0  0  0  0  0  0  0  0  0  0  0
    1.3801   -1.9083    2.6290 H   0  0  0  0  0  0  0  0  0  0  0  0
    1.9814   -2.9461    1.3822 H   0  0  0  0  0  0  0  0  0  0  0  0
    5.8855   -2.0550    0.5310 H   0  0  0  0  0  0  0  0  0  0  0  0
    4.2268   -2.4560    0.4138 H   0  0  0  0  0  0  0  0  0  0  0  0
    5.2686   -4.6922    0.1842 H   0  0  0  0  0  0  0  0  0  0  0  0
    4.7970   -4.6116    1.8833 H   0  0  0  0  0  0  0  0  0  0  0  0
    6.5978   -3.8793    2.6370 H   0  0  0  0  0  0  0  0  0  0  0  0
    7.3296   -3.1934    1.1206 H   0  0  0  0  0  0  0  0  0  0  0  0
    7.8705   -5.9496    1.6005 H   0  0  0  0  0  0  0  0  0  0  0  0
    7.9176   -5.1020    3.1163 H   0  0  0  0  0  0  0  0  0  0  0  0
    9.2803   -3.1143    1.6807 H   0  0  0  0  0  0  0  0  0  0  0  0
    9.5303   -4.4451    0.6236 H   0  0  0  0  0  0  0  0  0  0  0  0
   10.3148   -4.8664    6.0680 H   0  0  0  0  0  0  0  0  0  0  0  0
   10.1642   -5.6129    4.2243 H   0  0  0  0  0  0  0  0  0  0  0  0
   10.3482   -7.6099    4.7796 H   0  0  0  0  0  0  0  0  0  0  0  0
   11.1254   -7.0643    6.2653 H   0  0  0  0  0  0  0  0  0  0  0  0
   13.3551   -6.7085    4.3407 H   0  0  0  0  0  0  0  0  0  0  0  0
   12.3764   -7.7452    3.4130 H   0  0  0  0  0  0  0  0  0  0  0  0
   12.9520   -9.6326    4.7718 H   0  0  0  0  0  0  0  0  0  0  0  0
   13.0564   -8.6506    6.2167 H   0  0  0  0  0  0  0  0  0  0  0  0
   15.3344   -8.0954    4.2701 H   0  0  0  0  0  0  0  0  0  0  0  0
   15.2623   -9.7321    4.8718 H   0  0  0  0  0  0  0  0  0  0  0  0
   16.4231   -8.4803    6.5173 H   0  0  0  0  0  0  0  0  0  0  0  0
   14.8874   -8.6941    7.2221 H   0  0  0  0  0  0  0  0  0  0  0  0
   15.4240   -6.3062    7.4368 H   0  0  0  0  0  0  0  0  0  0  0  0
   16.0160   -6.1230    5.7743 H   0  0  0  0  0  0  0  0  0  0  0  0
   13.8696   -4.6005    6.7675 H   0  0  0  0  0  0  0  0  0  0  0  0
   12.9020   -6.0519    6.6102 H   0  0  0  0  0  0  0  0  0  0  0  0
   12.9596   -4.9806    3.8067 H   0  0  0  0  0  0  0  0  0  0  0  0
   13.2283   -3.5452    4.7114 H   0  0  0  0  0  0  0  0  0  0  0  0
    8.7995   -1.5847    3.4976 H   0  0  0  0  0  0  0  0  0  0  0  0
  1  2  1  0  0  0  0
  1 25  1  0  0  0  0
  1 26  1  0  0  0  0
  1 27  1  0  0  0  0
  2  3  1  0  0  0  0
  2 24  2  3  0  0  0
  3  4  2  3  0  0  0
  3  6  1  0  0  0  0
  4  5  1  0  0  0  0
  4 28  1  0  0  0  0
  5 29  1  0  0  0  0
  5 30  1  0  0  0  0
  5 31  1  0  0  0  0
  6  7  1  0  0  0  0
  6 32  1  0  0  0  0
  6 33  1  0  0  0  0
  7  8  1  0  0  0  0
  7 34  1  0  0  0  0
  7 35  1  0  0  0  0
  8  9  1  0  0  0  0
  8 36  1  0  0  0  0
  8 37  1  0  0  0  0
  9 10  1  0  0  0  0
  9 38  1  0  0  0  0
  9 39  1  0  0  0  0
 10 11  1  0  0  0  0
 10 40  1  0  0  0  0
 10 41  1  0  0  0  0
 11 12  2  0  0  0  0
 11 13  1  0  0  0  0
 13 14  2  3  0  0  0
 13 23  1  0  0  0  0
 14 15  1  0  0  0  0
 14 24  1  0  0  0  0
 15 16  1  0  0  0  0
 15 42  1  0  0  0  0
 15 43  1  0  0  0  0
 16 17  1  0  0  0  0
 16 44  1  0  0  0  0
 16 45  1  0  0  0  0
 17 18  1  0  0  0  0
 17 46  1  0  0  0  0
 17 47  1  0  0  0  0
 18 19  1  0  0  0  0
 18 48  1  0  0  0  0
 18 49  1  0  0  0  0
 19 20  1  0  0  0  0
 19 50  1  0  0  0  0
 19 51  1  0  0  0  0
 20 21  1  0  0  0  0
 20 52  1  0  0  0  0
 20 53  1  0  0  0  0
 21 22  1  0  0  0  0
 21 54  1  0  0  0  0
 21 55  1  0  0  0  0
 22 23  1  0  0  0  0
 22 56  1  0  0  0  0
 22 57  1  0  0  0  0
 23 58  1  0  0  0  0
 23 59  1  0  0  0  0
 24 60  1  0  0  0  0
M  END
$$$$
