
 OpenBabel04232216503D

 57 59  0  0  1  0  0  0  0  0999 V2000
    1.2433   -0.0768   -0.4699 C   0  0  0  0  0  0  0  0  0  0  0  0
    2.7339   -0.0044   -0.2649 C   0  0  0  0  0  0  0  0  0  0  0  0
    3.4245   -1.1926   -0.3058 N   0  0  0  0  0  0  0  0  0  0  0  0
    4.7642   -1.1504   -0.1326 C   0  0  0  0  0  0  0  0  0  0  0  0
    5.5783   -2.4414   -0.1043 C   0  0  3  0  0  0  0  0  0  0  0  0
    5.6602   -2.9887    1.3335 C   0  0  0  0  0  0  0  0  0  0  0  0
    4.8056   -4.2155    1.6579 C   0  0  0  0  0  0  0  0  0  0  0  0
    5.3993   -5.5758    1.2341 C   0  0  3  0  0  0  0  0  0  0  0  0
    5.3276   -5.8060   -0.2837 C   0  0  0  0  0  0  0  0  0  0  0  0
    5.9857   -4.7370   -1.1537 C   0  0  0  0  0  0  0  0  0  0  0  0
    5.1768   -3.4380   -1.1991 C   0  0  0  0  0  0  0  0  0  0  0  0
    6.8199   -5.8430    1.7812 C   0  0  0  0  0  0  0  0  0  0  0  0
    6.8705   -5.8436    3.3128 C   0  0  0  0  0  0  0  0  0  0  0  0
    8.2886   -6.0809    3.8248 C   0  0  0  0  0  0  0  0  0  0  0  0
    8.3152   -6.0709    5.3521 C   0  0  0  0  0  0  0  0  0  0  0  0
    9.7286   -6.3034    5.8766 C   0  0  0  0  0  0  0  0  0  0  0  0
    9.7534   -6.2968    7.4026 C   0  0  0  0  0  0  0  0  0  0  0  0
   11.1592   -6.5319    7.9268 C   0  0  0  0  0  0  0  0  0  0  0  0
    5.4246    0.0492    0.1077 C   0  0  0  0  0  0  0  0  0  0  0  0
    4.6861    1.2404    0.1449 C   0  0  0  0  0  0  0  0  0  0  0  0
    5.2538    2.4693    0.3767 C   0  0  0  0  0  0  0  0  0  0  0  0
    4.5432    3.6103    0.4159 N   0  0  0  0  0  0  0  0  0  0  0  0
    3.2575    3.5502    0.2235 N   0  0  0  0  0  0  0  0  0  0  0  0
    2.6348    2.4120    0.0004 N   0  0  0  0  0  0  0  0  0  0  0  0
    3.3196    1.2469   -0.0448 C   0  0  0  0  0  0  0  0  0  0  0  0
    0.9131   -1.1100   -0.6132 H   0  0  0  0  0  0  0  0  0  0  0  0
    0.9554    0.4987   -1.3559 H   0  0  0  0  0  0  0  0  0  0  0  0
    0.7206    0.3278    0.4034 H   0  0  0  0  0  0  0  0  0  0  0  0
    6.6052   -2.1412   -0.3675 H   0  0  0  0  0  0  0  0  0  0  0  0
    5.3943   -2.1988    2.0489 H   0  0  0  0  0  0  0  0  0  0  0  0
    6.7122   -3.1974    1.5534 H   0  0  0  0  0  0  0  0  0  0  0  0
    3.7974   -4.0985    1.2452 H   0  0  0  0  0  0  0  0  0  0  0  0
    4.6645   -4.2384    2.7458 H   0  0  0  0  0  0  0  0  0  0  0  0
    4.7520   -6.3464    1.6779 H   0  0  0  0  0  0  0  0  0  0  0  0
    4.2737   -5.8991   -0.5751 H   0  0  0  0  0  0  0  0  0  0  0  0
    5.7829   -6.7775   -0.5183 H   0  0  0  0  0  0  0  0  0  0  0  0
    6.0454   -5.1357   -2.1743 H   0  0  0  0  0  0  0  0  0  0  0  0
    7.0194   -4.5516   -0.8400 H   0  0  0  0  0  0  0  0  0  0  0  0
    4.1019   -3.6552   -1.1756 H   0  0  0  0  0  0  0  0  0  0  0  0
    5.3585   -2.9602   -2.1721 H   0  0  0  0  0  0  0  0  0  0  0  0
    7.5381   -5.1137    1.3914 H   0  0  0  0  0  0  0  0  0  0  0  0
    7.1680   -6.8206    1.4232 H   0  0  0  0  0  0  0  0  0  0  0  0
    6.2035   -6.6239    3.6991 H   0  0  0  0  0  0  0  0  0  0  0  0
    6.5157   -4.8871    3.7106 H   0  0  0  0  0  0  0  0  0  0  0  0
    8.9552   -5.2996    3.4393 H   0  0  0  0  0  0  0  0  0  0  0  0
    8.6624   -7.0421    3.4521 H   0  0  0  0  0  0  0  0  0  0  0  0
    7.6452   -6.8489    5.7371 H   0  0  0  0  0  0  0  0  0  0  0  0
    7.9388   -5.1088    5.7219 H   0  0  0  0  0  0  0  0  0  0  0  0
   10.3971   -5.5231    5.4925 H   0  0  0  0  0  0  0  0  0  0  0  0
   10.1051   -7.2641    5.5046 H   0  0  0  0  0  0  0  0  0  0  0  0
    9.0866   -7.0761    7.7899 H   0  0  0  0  0  0  0  0  0  0  0  0
    9.3820   -5.3360    7.7778 H   0  0  0  0  0  0  0  0  0  0  0  0
   11.5426   -7.5013    7.5928 H   0  0  0  0  0  0  0  0  0  0  0  0
   11.1628   -6.5213    9.0207 H   0  0  0  0  0  0  0  0  0  0  0  0
   11.8422   -5.7524    7.5747 H   0  0  0  0  0  0  0  0  0  0  0  0
    6.4968    0.0585    0.2738 H   0  0  0  0  0  0  0  0  0  0  0  0
    6.3193    2.5937    0.5454 H   0  0  0  0  0  0  0  0  0  0  0  0
  1  2  1  0  0  0  0
  1 26  1  0  0  0  0
  1 27  1  0  0  0  0
  1 28  1  0  0  0  0
  2  3  1  0  0  0  0
  2 25  2  0  0  0  0
  3  4  2  0  0  0  0
  4  5  1  0  0  0  0
  4 19  1  0  0  0  0
  5  6  1  0  0  0  0
  5 11  1  0  0  0  0
  5 29  1  0  0  0  0
  6  7  1  0  0  0  0
  6 30  1  0  0  0  0
  6 31  1  0  0  0  0
  7  8  1  0  0  0  0
  7 32  1  0  0  0  0
  7 33  1  0  0  0  0
  8  9  1  0  0  0  0
  8 12  1  0  0  0  0
  8 34  1  0  0  0  0
  9 10  1  0  0  0  0
  9 35  1  0  0  0  0
  9 36  1  0  0  0  0
 10 11  1  0  0  0  0
 10 37  1  0  0  0  0
 10 38  1  0  0  0  0
 11 39  1  0  0  0  0
 11 40  1  0  0  0  0
 12 13  1  0  0  0  0
 12 41  1  0  0  0  0
 12 42  1  0  0  0  0
 13 14  1  0  0  0  0
 13 43  1  0  0  0  0
 13 44  1  0  0  0  0
 14 15  1  0  0  0  0
 14 45  1  0  0  0  0
 14 46  1  0  0  0  0
 15 16  1  0  0  0  0
 15 47  1  0  0  0  0
 15 48  1  0  0  0  0
 16 17  1  0  0  0  0
 16 49  1  0  0  0  0
 16 50  1  0  0  0  0
 17 18  1  0  0  0  0
 17 51  1  0  0  0  0
 17 52  1  0  0  0  0
 18 53  1  0  0  0  0
 18 54  1  0  0  0  0
 18 55  1  0  0  0  0
 19 20  2  0  0  0  0
 19 56  1  0  0  0  0
 20 21  1  0  0  0  0
 20 25  1  0  0  0  0
 21 22  2  0  0  0  0
 21 57  1  0  0  0  0
 22 23  1  0  0  0  0
 23 24  2  0  0  0  0
 24 25  1  0  0  0  0
M  END
$$$$
