
 OpenBabel04232217003D

180180  0  0  1  0  0  0  0  0999 V2000
    6.6175    2.3298    8.4735 O   0  0  0  0  0  0  0  0  0  0  0  0
    7.2171    2.1336    9.9653 C   0  0  0  0  0  0  0  0  0  0  0  0
    8.2586    2.9444    9.6224 C   0  0  0  0  0  0  0  0  0  0  0  0
    9.3058    1.9636    9.4847 C   0  0  0  0  0  0  0  0  0  0  0  0
    9.0671    0.4245    9.1415 C   0  0  0  0  0  0  0  0  0  0  0  0
    9.9759    2.5251   10.4422 N   0  0  0  0  0  0  0  0  0  0  0  0
    9.6128    1.8719   11.6306 C   0  0  0  0  0  0  0  0  0  0  0  0
   10.2634    2.7659   12.6192 C   0  0  0  0  0  0  0  0  0  0  0  0
   10.5691    1.7440   13.5463 C   0  0  0  0  0  0  0  0  0  0  0  0
   11.3517    1.7198   14.7600 C   0  0  0  0  0  0  0  0  0  0  0  0
   11.0802    0.0219   14.5743 C   0  0  0  0  0  0  0  0  0  0  0  0
    9.2606    0.0162   14.6291 C   0  0  0  0  0  0  0  0  0  0  0  0
    8.4633   -0.0590   12.6308 C   0  0  0  0  0  0  0  0  0  0  0  0
    7.2745    0.4127   10.9854 C   0  0  3  0  0  0  0  0  0  0  0  0
    6.2188   -0.0873    9.1281 C   0  0  0  0  0  0  0  0  0  0  0  0
    5.4609   -0.2723    7.3384 C   0  0  0  0  0  0  0  0  0  0  0  0
    4.0444   -0.3552    5.9492 C   0  0  0  0  0  0  0  0  0  0  0  0
    2.8375   -1.5916    5.9289 C   0  0  0  0  0  0  0  0  0  0  0  0
    1.7760   -1.8980    7.0818 C   0  0  0  0  0  0  0  0  0  0  0  0
    2.4318   -2.2845    8.4141 C   0  0  0  0  0  0  0  0  0  0  0  0
    1.4478   -2.5968    9.5587 C   0  0  0  0  0  0  0  0  0  0  0  0
    2.1947   -2.9449   10.8537 C   0  0  0  0  0  0  0  0  0  0  0  0
    1.2168   -3.2481   11.9845 C   0  0  0  0  0  0  0  0  0  0  0  0
    1.9689   -3.5908   13.2620 C   0  0  0  0  0  0  0  0  0  0  0  0
    0.9877   -3.8910   14.3821 C   0  0  0  0  0  0  0  0  0  0  0  0
    1.7410   -4.2324   15.6546 C   0  0  0  0  0  0  0  0  0  0  0  0
    0.7595   -4.5338   16.7714 C   0  0  0  0  0  0  0  0  0  0  0  0
    1.5133   -4.8748   18.0426 C   0  0  0  0  0  0  0  0  0  0  0  0
    0.5317   -5.1761   19.1586 C   0  0  0  0  0  0  0  0  0  0  0  0
    1.2855   -5.5170   20.4296 C   0  0  0  0  0  0  0  0  0  0  0  0
    0.3039   -5.8182   21.5455 C   0  0  0  0  0  0  0  0  0  0  0  0
    1.0577   -6.1591   22.8164 C   0  0  0  0  0  0  0  0  0  0  0  0
    0.0761   -6.4603   23.9323 C   0  0  0  0  0  0  0  0  0  0  0  0
    0.8300   -6.8032   25.2027 C   0  0  0  0  0  0  0  0  0  0  0  0
   -0.1516   -7.1063   26.3181 C   0  0  0  0  0  0  0  0  0  0  0  0
    0.6023   -7.4473   27.5890 C   0  0  0  0  0  0  0  0  0  0  0  0
   -0.3793   -7.7523   28.7039 C   0  0  0  0  0  0  0  0  0  0  0  0
    0.3745   -8.0913   29.9753 C   0  0  0  0  0  0  0  0  0  0  0  0
   -0.6071   -8.3984   31.0896 C   0  0  0  0  0  0  0  0  0  0  0  0
    0.1468   -8.7393   32.3605 C   0  0  0  0  0  0  0  0  0  0  0  0
   -0.8348   -9.0483   33.4743 C   0  0  0  0  0  0  0  0  0  0  0  0
   -0.0810   -9.3873   34.7457 C   0  0  0  0  0  0  0  0  0  0  0  0
   -1.0625   -9.6982   35.8590 C   0  0  0  0  0  0  0  0  0  0  0  0
   -0.3087  -10.0372   37.1304 C   0  0  0  0  0  0  0  0  0  0  0  0
   -1.2902  -10.3481   38.2437 C   0  0  0  0  0  0  0  0  0  0  0  0
   -0.5364  -10.6871   39.5150 C   0  0  0  0  0  0  0  0  0  0  0  0
   -1.5179  -10.9979   40.6281 C   0  0  0  0  0  0  0  0  0  0  0  0
   -0.7640  -11.3368   41.8991 C   0  0  0  0  0  0  0  0  0  0  0  0
   -1.7456  -11.6475   43.0114 C   0  0  0  0  0  0  0  0  0  0  0  0
   -0.9909  -11.9859   44.2808 C   0  0  0  0  0  0  0  0  0  0  0  0
   -1.9730  -12.2957   45.3899 C   0  0  0  0  0  0  0  0  0  0  0  0
   -1.2173  -12.6328   46.6545 C   0  0  0  0  0  0  0  0  0  0  0  0
   -2.2055  -12.9391   47.7507 C   0  0  0  0  0  0  0  0  0  0  0  0
   -1.4502  -13.2721   49.0000 C   0  0  0  0  0  0  0  0  0  0  0  0
   -2.4386  -13.5734   50.0701 C   0  0  0  0  0  0  0  0  0  0  0  0
   -1.6276  -13.8611   51.1619 O   0  0  0  0  0  0  0  0  0  0  0  0
   -2.5773  -14.1385   52.1533 O   0  0  0  0  0  0  0  0  0  0  0  0
   -1.8718  -14.4423   53.3091 O   0  0  0  0  0  0  0  0  0  0  0  0
   -2.8083  -14.7192   54.2911 O   0  0  0  0  0  0  0  0  0  0  0  0
   -2.0835  -15.0179   55.4286 O   0  0  0  0  0  0  0  0  0  0  0  0
   -3.0093  -15.2942   56.4093 O   0  0  0  0  0  0  0  0  0  0  0  0
   -2.2775  -15.5897   57.5351 O   0  0  0  0  0  0  0  0  0  0  0  0
   -3.2050  -15.8639   58.5080 O   0  0  0  0  0  0  0  0  0  0  0  0
   -2.4750  -16.1582   59.6292 O   0  0  0  0  0  0  0  0  0  0  0  0
   -3.4049  -16.4308   60.5961 O   0  0  0  0  0  0  0  0  0  0  0  0
   -2.6749  -16.7245   61.7153 O   0  0  0  0  0  0  0  0  0  0  0  0
   -3.6049  -16.9969   62.6811 O   0  0  0  0  0  0  0  0  0  0  0  0
   -2.8755  -17.2909   63.8013 O   0  0  0  0  0  0  0  0  0  0  0  0
   -3.8055  -17.5640   64.7702 O   0  0  0  0  0  0  0  0  0  0  0  0
   -3.0757  -17.8591   65.8942 O   0  0  0  0  0  0  0  0  0  0  0  0
   -4.0012  -18.1350   66.8733 O   0  0  0  0  0  0  0  0  0  0  0  0
   -3.2688  -18.4320   68.0058 O   0  0  0  0  0  0  0  0  0  0  0  0
   -4.1970  -18.7104   68.9951 O   0  0  0  0  0  0  0  0  0  0  0  0
   -3.4862  -19.0283   70.1470 O   0  0  0  0  0  0  0  0  0  0  0  0
   -4.4339  -19.3169   71.1538 O   0  0  0  0  0  0  0  0  0  0  0  0
   -3.7216  -19.6077   72.3423 O   0  0  0  0  0  0  0  0  0  0  0  0
   -2.9125  -18.4666   72.6885 O   0  0  0  0  0  0  0  0  0  0  0  0
    7.0635    3.0677    7.9297 H   0  0  0  0  0  0  0  0  0  0  0  0
    8.3204    3.8352    8.9286 H   0  0  0  0  0  0  0  0  0  0  0  0
    8.6449   -0.3459    8.4643 H   0  0  0  0  0  0  0  0  0  0  0  0
    8.0495    0.5717    9.2779 H   0  0  0  0  0  0  0  0  0  0  0  0
    9.5797   -0.2665    9.7947 H   0  0  0  0  0  0  0  0  0  0  0  0
   10.0418    0.8800   11.4377 H   0  0  0  0  0  0  0  0  0  0  0  0
    8.5700    1.8058   12.0250 H   0  0  0  0  0  0  0  0  0  0  0  0
    9.5101    3.4197   13.0744 H   0  0  0  0  0  0  0  0  0  0  0  0
   11.1951    3.1325   12.2499 H   0  0  0  0  0  0  0  0  0  0  0  0
   11.0025    0.9326   12.9306 H   0  0  0  0  0  0  0  0  0  0  0  0
    9.5322    1.7042   13.8798 H   0  0  0  0  0  0  0  0  0  0  0  0
   10.7893    2.3848   15.4509 H   0  0  0  0  0  0  0  0  0  0  0  0
   12.3308    2.1833   14.5470 H   0  0  0  0  0  0  0  0  0  0  0  0
   12.0961   -0.2246   15.0948 H   0  0  0  0  0  0  0  0  0  0  0  0
   10.9354   -0.8487   15.2563 H   0  0  0  0  0  0  0  0  0  0  0  0
    8.8514    0.8971   15.3841 H   0  0  0  0  0  0  0  0  0  0  0  0
    9.8997    0.3633   15.6020 H   0  0  0  0  0  0  0  0  0  0  0  0
    8.2776   -1.2374   13.0628 H   0  0  0  0  0  0  0  0  0  0  0  0
    9.5942   -0.4807   12.3812 H   0  0  0  0  0  0  0  0  0  0  0  0
    7.4523   -0.6547   10.7425 H   0  0  0  0  0  0  0  0  0  0  0  0
    5.5151    0.7139    9.0346 H   0  0  0  0  0  0  0  0  0  0  0  0
    5.7126   -0.9620    9.4068 H   0  0  0  0  0  0  0  0  0  0  0  0
    5.2808   -1.2616    7.3316 H   0  0  0  0  0  0  0  0  0  0  0  0
    6.2540    0.1071    6.4050 H   0  0  0  0  0  0  0  0  0  0  0  0
    4.4289   -0.4824    4.8305 H   0  0  0  0  0  0  0  0  0  0  0  0
    3.4784    0.5840    5.7755 H   0  0  0  0  0  0  0  0  0  0  0  0
    3.3757   -2.5349    5.7594 H   0  0  0  0  0  0  0  0  0  0  0  0
    2.2140   -1.4470    4.9966 H   0  0  0  0  0  0  0  0  0  0  0  0
    1.0996   -2.7432    6.7911 H   0  0  0  0  0  0  0  0  0  0  0  0
    1.0883   -1.0548    7.2422 H   0  0  0  0  0  0  0  0  0  0  0  0
    3.0700   -1.4578    8.7302 H   0  0  0  0  0  0  0  0  0  0  0  0
    3.0705   -3.1632    8.2701 H   0  0  0  0  0  0  0  0  0  0  0  0
    0.7986   -3.4406    9.2927 H   0  0  0  0  0  0  0  0  0  0  0  0
    0.7990   -1.7338    9.7509 H   0  0  0  0  0  0  0  0  0  0  0  0
    2.8423   -2.1108   11.1519 H   0  0  0  0  0  0  0  0  0  0  0  0
    2.8420   -3.8165   10.6945 H   0  0  0  0  0  0  0  0  0  0  0  0
    0.5687   -4.0877   11.7050 H   0  0  0  0  0  0  0  0  0  0  0  0
    0.5690   -2.3811   12.1627 H   0  0  0  0  0  0  0  0  0  0  0  0
    2.6160   -2.7539   13.5520 H   0  0  0  0  0  0  0  0  0  0  0  0
    2.6157   -4.4607   13.0943 H   0  0  0  0  0  0  0  0  0  0  0  0
    0.3401   -4.7294   14.0974 H   0  0  0  0  0  0  0  0  0  0  0  0
    0.3404   -3.0225   14.5552 H   0  0  0  0  0  0  0  0  0  0  0  0
    2.3872   -3.3941   15.9427 H   0  0  0  0  0  0  0  0  0  0  0  0
    2.3891   -5.1008   15.4838 H   0  0  0  0  0  0  0  0  0  0  0  0
    0.1132   -5.3724   16.4845 H   0  0  0  0  0  0  0  0  0  0  0  0
    0.1113   -3.6657   16.9434 H   0  0  0  0  0  0  0  0  0  0  0  0
    2.1595   -4.0363   18.3300 H   0  0  0  0  0  0  0  0  0  0  0  0
    2.1614   -5.7430   17.8710 H   0  0  0  0  0  0  0  0  0  0  0  0
   -0.1146   -6.0146   18.8715 H   0  0  0  0  0  0  0  0  0  0  0  0
   -0.1165   -4.3079   19.3304 H   0  0  0  0  0  0  0  0  0  0  0  0
    1.9317   -4.6785   20.7168 H   0  0  0  0  0  0  0  0  0  0  0  0
    1.9336   -6.3852   20.2579 H   0  0  0  0  0  0  0  0  0  0  0  0
   -0.3423   -6.6567   21.2583 H   0  0  0  0  0  0  0  0  0  0  0  0
   -0.3442   -4.9500   21.7173 H   0  0  0  0  0  0  0  0  0  0  0  0
    1.7040   -5.3206   23.1037 H   0  0  0  0  0  0  0  0  0  0  0  0
    1.7059   -7.0273   22.6447 H   0  0  0  0  0  0  0  0  0  0  0  0
   -0.5710   -7.2979   23.6445 H   0  0  0  0  0  0  0  0  0  0  0  0
   -0.5710   -5.5917   24.1050 H   0  0  0  0  0  0  0  0  0  0  0  0
    1.4761   -5.9650   25.4913 H   0  0  0  0  0  0  0  0  0  0  0  0
    1.4783   -7.6710   25.0296 H   0  0  0  0  0  0  0  0  0  0  0  0
   -0.7967   -7.9454   26.0300 H   0  0  0  0  0  0  0  0  0  0  0  0
   -0.8008   -6.2391   26.4903 H   0  0  0  0  0  0  0  0  0  0  0  0
    1.2463   -6.6076   27.8778 H   0  0  0  0  0  0  0  0  0  0  0  0
    1.2525   -8.3137   27.4165 H   0  0  0  0  0  0  0  0  0  0  0  0
   -1.0224   -8.5929   28.4156 H   0  0  0  0  0  0  0  0  0  0  0  0
   -1.0306   -6.8865   28.8755 H   0  0  0  0  0  0  0  0  0  0  0  0
    1.0165   -7.2502   30.2643 H   0  0  0  0  0  0  0  0  0  0  0  0
    1.0268   -8.9563   29.8033 H   0  0  0  0  0  0  0  0  0  0  0  0
   -1.2500   -9.2386   30.8000 H   0  0  0  0  0  0  0  0  0  0  0  0
   -1.2585   -7.5329   31.2625 H   0  0  0  0  0  0  0  0  0  0  0  0
    0.7887   -7.8985   32.6509 H   0  0  0  0  0  0  0  0  0  0  0  0
    0.7992   -9.6039   32.1872 H   0  0  0  0  0  0  0  0  0  0  0  0
   -1.4757   -9.8900   33.1844 H   0  0  0  0  0  0  0  0  0  0  0  0
   -1.4882   -8.1842   33.6467 H   0  0  0  0  0  0  0  0  0  0  0  0
    0.5589   -8.5450   35.0363 H   0  0  0  0  0  0  0  0  0  0  0  0
    0.5735  -10.2505   34.5730 H   0  0  0  0  0  0  0  0  0  0  0  0
   -1.7023  -10.5405   35.5684 H   0  0  0  0  0  0  0  0  0  0  0  0
   -1.7170   -8.8350   36.0318 H   0  0  0  0  0  0  0  0  0  0  0  0
    0.3312   -9.1949   37.4211 H   0  0  0  0  0  0  0  0  0  0  0  0
    0.3458  -10.9003   36.9577 H   0  0  0  0  0  0  0  0  0  0  0  0
   -1.9301  -11.1904   37.9531 H   0  0  0  0  0  0  0  0  0  0  0  0
   -1.9447   -9.4849   38.4165 H   0  0  0  0  0  0  0  0  0  0  0  0
    0.1035   -9.8448   39.8057 H   0  0  0  0  0  0  0  0  0  0  0  0
    0.1181  -11.5503   39.3423 H   0  0  0  0  0  0  0  0  0  0  0  0
   -2.1578  -11.8403   40.3377 H   0  0  0  0  0  0  0  0  0  0  0  0
   -2.1724  -10.1348   40.8011 H   0  0  0  0  0  0  0  0  0  0  0  0
   -0.1242  -10.4946   42.1902 H   0  0  0  0  0  0  0  0  0  0  0  0
   -0.1095  -12.2001   41.7268 H   0  0  0  0  0  0  0  0  0  0  0  0
   -2.3855  -12.4900   42.7218 H   0  0  0  0  0  0  0  0  0  0  0  0
   -2.4001  -10.7846   43.1852 H   0  0  0  0  0  0  0  0  0  0  0  0
   -0.3514  -11.1441   44.5735 H   0  0  0  0  0  0  0  0  0  0  0  0
   -0.3368  -12.8497   44.1101 H   0  0  0  0  0  0  0  0  0  0  0  0
   -2.6132  -13.1390   45.1030 H   0  0  0  0  0  0  0  0  0  0  0  0
   -2.6279  -11.4335   45.5665 H   0  0  0  0  0  0  0  0  0  0  0  0
   -0.5784  -11.7924   46.9530 H   0  0  0  0  0  0  0  0  0  0  0  0
   -0.5638  -13.4983   46.4895 H   0  0  0  0  0  0  0  0  0  0  0  0
   -2.8449  -13.7852   47.4708 H   0  0  0  0  0  0  0  0  0  0  0  0
   -2.8595  -12.0781   47.9347 H   0  0  0  0  0  0  0  0  0  0  0  0
   -0.8047  -12.4443   49.3224 H   0  0  0  0  0  0  0  0  0  0  0  0
   -0.7880  -14.1371   48.8612 H   0  0  0  0  0  0  0  0  0  0  0  0
   -3.0623  -14.4454   49.8389 H   0  0  0  0  0  0  0  0  0  0  0  0
   -3.0812  -12.7171   50.3081 H   0  0  0  0  0  0  0  0  0  0  0  0
   -2.5412  -18.8867   73.4737 H   0  0  0  0  0  0  0  0  0  0  0  0
  1  2  1  0  0  0  0
  1 78  1  0  0  0  0
  2  3  2  3  0  0  0
  2 14  1  0  0  0  0
  3  4  1  0  0  0  0
  3 79  1  0  0  0  0
  4  5  1  0  0  0  0
  4  6  2  3  0  0  0
  5 80  1  0  0  0  0
  5 81  1  0  0  0  0
  5 82  1  0  0  0  0
  6  7  1  0  0  0  0
  7  8  1  0  0  0  0
  7 83  1  0  0  0  0
  7 84  1  0  0  0  0
  8  9  1  0  0  0  0
  8 85  1  0  0  0  0
  8 86  1  0  0  0  0
  9 10  1  0  0  0  0
  9 87  1  0  0  0  0
  9 88  1  0  0  0  0
 10 11  1  0  0  0  0
 10 89  1  0  0  0  0
 10 90  1  0  0  0  0
 11 12  1  0  0  0  0
 11 91  1  0  0  0  0
 11 92  1  0  0  0  0
 12 13  1  0  0  0  0
 12 93  1  0  0  0  0
 12 94  1  0  0  0  0
 13 14  1  0  0  0  0
 13 95  1  0  0  0  0
 13 96  1  0  0  0  0
 14 15  1  0  0  0  0
 14 97  1  0  0  0  0
 15 16  1  0  0  0  0
 15 98  1  0  0  0  0
 15 99  1  0  0  0  0
 16 17  1  0  0  0  0
 16100  1  0  0  0  0
 16101  1  0  0  0  0
 17 18  1  0  0  0  0
 17102  1  0  0  0  0
 17103  1  0  0  0  0
 18 19  1  0  0  0  0
 18104  1  0  0  0  0
 18105  1  0  0  0  0
 19 20  1  0  0  0  0
 19106  1  0  0  0  0
 19107  1  0  0  0  0
 20 21  1  0  0  0  0
 20108  1  0  0  0  0
 20109  1  0  0  0  0
 21 22  1  0  0  0  0
 21110  1  0  0  0  0
 21111  1  0  0  0  0
 22 23  1  0  0  0  0
 22112  1  0  0  0  0
 22113  1  0  0  0  0
 23 24  1  0  0  0  0
 23114  1  0  0  0  0
 23115  1  0  0  0  0
 24 25  1  0  0  0  0
 24116  1  0  0  0  0
 24117  1  0  0  0  0
 25 26  1  0  0  0  0
 25118  1  0  0  0  0
 25119  1  0  0  0  0
 26 27  1  0  0  0  0
 26120  1  0  0  0  0
 26121  1  0  0  0  0
 27 28  1  0  0  0  0
 27122  1  0  0  0  0
 27123  1  0  0  0  0
 28 29  1  0  0  0  0
 28124  1  0  0  0  0
 28125  1  0  0  0  0
 29 30  1  0  0  0  0
 29126  1  0  0  0  0
 29127  1  0  0  0  0
 30 31  1  0  0  0  0
 30128  1  0  0  0  0
 30129  1  0  0  0  0
 31 32  1  0  0  0  0
 31130  1  0  0  0  0
 31131  1  0  0  0  0
 32 33  1  0  0  0  0
 32132  1  0  0  0  0
 32133  1  0  0  0  0
 33 34  1  0  0  0  0
 33134  1  0  0  0  0
 33135  1  0  0  0  0
 34 35  1  0  0  0  0
 34136  1  0  0  0  0
 34137  1  0  0  0  0
 35 36  1  0  0  0  0
 35138  1  0  0  0  0
 35139  1  0  0  0  0
 36 37  1  0  0  0  0
 36140  1  0  0  0  0
 36141  1  0  0  0  0
 37 38  1  0  0  0  0
 37142  1  0  0  0  0
 37143  1  0  0  0  0
 38 39  1  0  0  0  0
 38144  1  0  0  0  0
 38145  1  0  0  0  0
 39 40  1  0  0  0  0
 39146  1  0  0  0  0
 39147  1  0  0  0  0
 40 41  1  0  0  0  0
 40148  1  0  0  0  0
 40149  1  0  0  0  0
 41 42  1  0  0  0  0
 41150  1  0  0  0  0
 41151  1  0  0  0  0
 42 43  1  0  0  0  0
 42152  1  0  0  0  0
 42153  1  0  0  0  0
 43 44  1  0  0  0  0
 43154  1  0  0  0  0
 43155  1  0  0  0  0
 44 45  1  0  0  0  0
 44156  1  0  0  0  0
 44157  1  0  0  0  0
 45 46  1  0  0  0  0
 45158  1  0  0  0  0
 45159  1  0  0  0  0
 46 47  1  0  0  0  0
 46160  1  0  0  0  0
 46161  1  0  0  0  0
 47 48  1  0  0  0  0
 47162  1  0  0  0  0
 47163  1  0  0  0  0
 48 49  1  0  0  0  0
 48164  1  0  0  0  0
 48165  1  0  0  0  0
 49 50  1  0  0  0  0
 49166  1  0  0  0  0
 49167  1  0  0  0  0
 50 51  1  0  0  0  0
 50168  1  0  0  0  0
 50169  1  0  0  0  0
 51 52  1  0  0  0  0
 51170  1  0  0  0  0
 51171  1  0  0  0  0
 52 53  1  0  0  0  0
 52172  1  0  0  0  0
 52173  1  0  0  0  0
 53 54  1  0  0  0  0
 53174  1  0  0  0  0
 53175  1  0  0  0  0
 54 55  1  0  0  0  0
 54176  1  0  0  0  0
 54177  1  0  0  0  0
 55 56  1  0  0  0  0
 55178  1  0  0  0  0
 55179  1  0  0  0  0
 56 57  1  0  0  0  0
 57 58  1  0  0  0  0
 58 59  1  0  0  0  0
 59 60  1  0  0  0  0
 60 61  1  0  0  0  0
 61 62  1  0  0  0  0
 62 63  1  0  0  0  0
 63 64  1  0  0  0  0
 64 65  1  0  0  0  0
 65 66  1  0  0  0  0
 66 67  1  0  0  0  0
 67 68  1  0  0  0  0
 68 69  1  0  0  0  0
 69 70  1  0  0  0  0
 70 71  1  0  0  0  0
 71 72  1  0  0  0  0
 72 73  1  0  0  0  0
 73 74  1  0  0  0  0
 74 75  1  0  0  0  0
 75 76  1  0  0  0  0
 76 77  1  0  0  0  0
 77180  1  0  0  0  0
M  END
$$$$
