
 OpenBabel04232216433D

 49 50  0  0  1  0  0  0  0  0999 V2000
    7.8515   -1.9673    3.0782 C   0  0  0  0  0  0  0  0  0  0  0  0
    9.0413   -2.3582    4.0468 C   0  0  3  0  0  0  0  0  0  0  0  0
   10.1813   -1.2536    4.0049 C   0  0  0  0  0  0  0  0  0  0  0  0
   11.2519   -1.0101    5.1860 C   0  0  0  0  0  0  0  0  0  0  0  0
   10.8498   -0.5387    6.6254 N   0  0  0  0  0  0  0  0  0  0  0  0
   11.7462   -0.4528    7.6857 C   0  0  0  0  0  0  0  0  0  0  0  0
   11.3014   -0.6579    9.1994 C   0  0  0  0  0  0  0  0  0  0  0  0
   13.0078   -0.2596    7.3985 C   0  0  0  0  0  0  0  0  0  0  0  0
   13.8847   -1.1223    8.0625 C   0  0  0  0  0  0  0  0  0  0  0  0
   13.5771   -2.4162    8.2872 C   0  0  0  0  0  0  0  0  0  0  0  0
   14.7891   -2.9656    9.0854 C   0  0  0  0  0  0  0  0  0  0  0  0
   12.1701   -3.4134    7.9360 C   0  0  0  0  0  0  0  0  0  0  0  0
   12.3944   -4.6086    8.2057 O   0  0  0  0  0  0  0  0  0  0  0  0
   10.4325   -3.0260    7.5099 C   0  0  0  0  0  0  0  0  0  0  0  0
    9.6854   -2.9185    8.4795 O   0  0  0  0  0  0  0  0  0  0  0  0
    9.8360   -3.0747    6.1715 N   0  0  0  0  0  0  0  0  0  0  0  0
    8.7661   -2.4934    5.6046 C   0  0  0  0  0  0  0  0  0  0  0  0
    7.5833   -1.4581    5.8655 C   0  0  0  0  0  0  0  0  0  0  0  0
    6.2726   -1.2254    5.5494 C   0  0  0  0  0  0  0  0  0  0  0  0
    5.8586    0.1706    5.1196 C   0  0  0  0  0  0  0  0  0  0  0  0
    5.9957    1.2503    5.9270 C   0  0  0  0  0  0  0  0  0  0  0  0
    7.2779    1.9884    5.8171 C   0  0  0  0  0  0  0  0  0  0  0  0
    8.1025    1.7985    6.8600 C   0  0  0  0  0  0  0  0  0  0  0  0
    9.4364    1.4068    6.5397 C   0  0  0  0  0  0  0  0  0  0  0  0
    9.7362    0.1536    6.8977 C   0  0  0  0  0  0  0  0  0  0  0  0
    8.1204   -2.0340    2.0154 H   0  0  0  0  0  0  0  0  0  0  0  0
    7.5219   -0.9255    3.1936 H   0  0  0  0  0  0  0  0  0  0  0  0
    6.9600   -2.5981    3.2082 H   0  0  0  0  0  0  0  0  0  0  0  0
    9.3918   -3.3195    3.6740 H   0  0  0  0  0  0  0  0  0  0  0  0
    9.7451   -0.2834    3.7485 H   0  0  0  0  0  0  0  0  0  0  0  0
   10.7809   -1.5389    3.1287 H   0  0  0  0  0  0  0  0  0  0  0  0
   11.9342   -0.2508    4.7985 H   0  0  0  0  0  0  0  0  0  0  0  0
   11.8473   -1.9268    5.2745 H   0  0  0  0  0  0  0  0  0  0  0  0
   10.2235   -0.6233    9.3637 H   0  0  0  0  0  0  0  0  0  0  0  0
   11.7392    0.1051    9.8526 H   0  0  0  0  0  0  0  0  0  0  0  0
   11.6143   -1.6199    9.6383 H   0  0  0  0  0  0  0  0  0  0  0  0
   13.3585    0.0915    6.4624 H   0  0  0  0  0  0  0  0  0  0  0  0
   14.8389   -0.6839    8.3385 H   0  0  0  0  0  0  0  0  0  0  0  0
   15.7120   -2.8500    8.4832 H   0  0  0  0  0  0  0  0  0  0  0  0
   14.7589   -3.9745    9.4700 H   0  0  0  0  0  0  0  0  0  0  0  0
   14.9791   -2.3024    9.9589 H   0  0  0  0  0  0  0  0  0  0  0  0
    8.0928   -0.5185    5.6973 H   0  0  0  0  0  0  0  0  0  0  0  0
    5.5595   -1.9876    5.2520 H   0  0  0  0  0  0  0  0  0  0  0  0
    6.0341    0.3493    4.0526 H   0  0  0  0  0  0  0  0  0  0  0  0
    5.7003    1.1202    6.9717 H   0  0  0  0  0  0  0  0  0  0  0  0
    7.6924    2.1635    4.8320 H   0  0  0  0  0  0  0  0  0  0  0  0
    7.7077    1.3551    7.7741 H   0  0  0  0  0  0  0  0  0  0  0  0
   10.1022    1.9093    5.8742 H   0  0  0  0  0  0  0  0  0  0  0  0
    9.1011   -0.4340    7.6029 H   0  0  0  0  0  0  0  0  0  0  0  0
  1  2  1  0  0  0  0
  1 26  1  0  0  0  0
  1 27  1  0  0  0  0
  1 28  1  0  0  0  0
  2  3  1  0  0  0  0
  2 17  1  0  0  0  0
  2 29  1  0  0  0  0
  3  4  1  0  0  0  0
  3 30  1  0  0  0  0
  3 31  1  0  0  0  0
  4  5  1  0  0  0  0
  4 32  1  0  0  0  0
  4 33  1  0  0  0  0
  5  6  1  0  0  0  0
  5 25  1  0  0  0  0
  6  7  1  0  0  0  0
  6  8  2  3  0  0  0
  7 34  1  0  0  0  0
  7 35  1  0  0  0  0
  7 36  1  0  0  0  0
  8  9  1  0  0  0  0
  8 37  1  0  0  0  0
  9 10  2  3  0  0  0
  9 38  1  0  0  0  0
 10 11  1  0  0  0  0
 10 12  1  0  0  0  0
 11 39  1  0  0  0  0
 11 40  1  0  0  0  0
 11 41  1  0  0  0  0
 12 13  2  0  0  0  0
 12 14  1  0  0  0  0
 14 15  2  0  0  0  0
 14 16  1  0  0  0  0
 16 17  2  3  0  0  0
 17 18  1  0  0  0  0
 18 19  2  3  0  0  0
 18 42  1  0  0  0  0
 19 20  1  0  0  0  0
 19 43  1  0  0  0  0
 20 21  2  3  0  0  0
 20 44  1  0  0  0  0
 21 22  1  0  0  0  0
 21 45  1  0  0  0  0
 22 23  2  3  0  0  0
 22 46  1  0  0  0  0
 23 24  1  0  0  0  0
 23 47  1  0  0  0  0
 24 25  2  3  0  0  0
 24 48  1  0  0  0  0
 25 49  1  0  0  0  0
M  END
$$$$
