
 OpenBabel04232216473D

 42 43  0  0  1  0  0  0  0  0999 V2000
    4.2198    2.2026    3.5742 C   0  0  0  0  0  0  0  0  0  0  0  0
    5.2245    1.5344    2.6281 C   0  0  0  0  0  0  0  0  0  0  0  0
    4.7243    1.5575    1.2272 C   0  0  0  0  0  0  0  0  0  0  0  0
    4.8336    2.6863    0.5006 C   0  0  0  0  0  0  0  0  0  0  0  0
    5.7644    3.7654    0.6590 C   0  0  0  0  0  0  0  0  0  0  0  0
    6.7403    3.9104    1.7018 C   0  0  3  0  0  0  0  0  0  0  0  0
    6.4266    5.0332    2.6123 C   0  0  0  0  0  0  0  0  0  0  0  0
    7.4308    5.1631    3.7539 C   0  0  0  0  0  0  0  0  0  0  0  0
    8.6750    5.8587    3.2412 C   0  0  0  0  0  0  0  0  0  0  0  0
    9.6680    6.1901    4.3384 C   0  0  0  0  0  0  0  0  0  0  0  0
   10.8760    6.8565    3.7036 C   0  0  0  0  0  0  0  0  0  0  0  0
    7.0516    3.7917    0.2739 C   0  0  0  0  0  0  0  0  0  0  0  0
    7.5360    2.6442   -0.3085 N   0  0  0  0  0  0  0  0  0  0  0  0
    8.4699    2.0140    0.3352 C   0  0  0  0  0  0  0  0  0  0  0  0
    9.6852    2.7322    0.9003 C   0  0  0  0  0  0  0  0  0  0  0  0
    8.4595    0.6434    0.5498 N   0  0  0  0  0  0  0  0  0  0  0  0
    7.4795    0.0824   -0.3450 F   0  0  0  0  0  0  0  0  0  0  0  0
    8.1507    0.0928    1.7788 C   0  0  0  0  0  0  0  0  0  0  0  0
    7.3001    0.2611    2.8022 C   0  0  0  0  0  0  0  0  0  0  0  0
    6.2705    1.0568    3.2094 N   0  0  0  0  0  0  0  0  0  0  0  0
    3.2369    1.7368    3.4446 H   0  0  0  0  0  0  0  0  0  0  0  0
    4.1085    3.2629    3.3403 H   0  0  0  0  0  0  0  0  0  0  0  0
    4.5269    2.0978    4.6172 H   0  0  0  0  0  0  0  0  0  0  0  0
    3.9103    0.8752    1.0156 H   0  0  0  0  0  0  0  0  0  0  0  0
    4.1104    2.8637   -0.2932 H   0  0  0  0  0  0  0  0  0  0  0  0
    7.1214    3.0720    2.2526 H   0  0  0  0  0  0  0  0  0  0  0  0
    5.4669    4.8056    3.0879 H   0  0  0  0  0  0  0  0  0  0  0  0
    6.2896    5.9853    2.0906 H   0  0  0  0  0  0  0  0  0  0  0  0
    7.6825    4.1812    4.1792 H   0  0  0  0  0  0  0  0  0  0  0  0
    6.9778    5.7514    4.5603 H   0  0  0  0  0  0  0  0  0  0  0  0
    8.3857    6.7766    2.7173 H   0  0  0  0  0  0  0  0  0  0  0  0
    9.1701    5.2265    2.5066 H   0  0  0  0  0  0  0  0  0  0  0  0
    9.9746    5.2800    4.8667 H   0  0  0  0  0  0  0  0  0  0  0  0
    9.2063    6.8602    5.0716 H   0  0  0  0  0  0  0  0  0  0  0  0
   11.3574    6.1833    2.9844 H   0  0  0  0  0  0  0  0  0  0  0  0
   11.6078    7.1299    4.4642 H   0  0  0  0  0  0  0  0  0  0  0  0
   10.5734    7.7631    3.1679 H   0  0  0  0  0  0  0  0  0  0  0  0
    9.4126    3.6657    1.3690 H   0  0  0  0  0  0  0  0  0  0  0  0
   10.3731    2.9547    0.0783 H   0  0  0  0  0  0  0  0  0  0  0  0
   10.2096    2.1139    1.6323 H   0  0  0  0  0  0  0  0  0  0  0  0
    8.9083   -0.6739    1.9393 H   0  0  0  0  0  0  0  0  0  0  0  0
    7.5704   -0.3794    3.6468 H   0  0  0  0  0  0  0  0  0  0  0  0
  1  2  1  0  0  0  0
  1 21  1  0  0  0  0
  1 22  1  0  0  0  0
  1 23  1  0  0  0  0
  2  3  1  0  0  0  0
  2 20  2  3  0  0  0
  3  4  2  3  0  0  0
  3 24  1  0  0  0  0
  4  5  1  0  0  0  0
  4 25  1  0  0  0  0
  5  6  1  0  0  0  0
  5 12  2  0  0  0  0
  6  7  1  0  0  0  0
  6 12  1  0  0  0  0
  6 26  1  0  0  0  0
  7  8  1  0  0  0  0
  7 27  1  0  0  0  0
  7 28  1  0  0  0  0
  8  9  1  0  0  0  0
  8 29  1  0  0  0  0
  8 30  1  0  0  0  0
  9 10  1  0  0  0  0
  9 31  1  0  0  0  0
  9 32  1  0  0  0  0
 10 11  1  0  0  0  0
 10 33  1  0  0  0  0
 10 34  1  0  0  0  0
 11 35  1  0  0  0  0
 11 36  1  0  0  0  0
 11 37  1  0  0  0  0
 12 13  1  0  0  0  0
 13 14  2  3  0  0  0
 14 15  1  0  0  0  0
 14 16  1  0  0  0  0
 15 38  1  0  0  0  0
 15 39  1  0  0  0  0
 15 40  1  0  0  0  0
 16 17  1  0  0  0  0
 16 18  1  0  0  0  0
 18 19  2  3  0  0  0
 18 41  1  0  0  0  0
 19 20  1  0  0  0  0
 19 42  1  0  0  0  0
M  END
$$$$
