
 OpenBabel04232216503D

 31 31  0  0  0  0  0  0  0  0999 V2000
    4.8666    1.0167    0.8044 C   0  0  0  0  0  0  0  0  0  0  0  0
    5.9916    1.8585    0.0125 C   0  0  0  0  0  0  0  0  0  0  0  0
    5.0869    2.1167   -1.0947 C   0  0  0  0  0  0  0  0  0  0  0  0
    4.8805    1.1699   -2.0465 C   0  0  0  0  0  0  0  0  0  0  0  0
    4.8533    1.8536   -3.3107 C   0  0  0  0  0  0  0  0  0  0  0  0
    6.1123    2.2123   -3.5435 C   0  0  0  0  0  0  0  0  0  0  0  0
    6.6477    3.4450   -4.0151 C   0  0  0  0  0  0  0  0  0  0  0  0
    7.9323    3.2679   -4.2849 C   0  0  0  0  0  0  0  0  0  0  0  0
    9.0150    4.1642   -4.4729 C   0  0  0  0  0  0  0  0  0  0  0  0
   10.1479    3.4603   -4.3707 C   0  0  0  0  0  0  0  0  0  0  0  0
   11.1220    3.7803   -3.3981 C   0  0  0  0  0  0  0  0  0  0  0  0
   10.9783    3.4965   -2.0806 C   0  0  0  0  0  0  0  0  0  0  0  0
    9.7524    3.3146   -1.1098 C   0  0  0  0  0  0  0  0  0  0  0  0
    8.6419    2.6001   -0.6983 C   0  0  0  0  0  0  0  0  0  0  0  0
    7.3603    1.7210   -0.2943 C   0  0  0  0  0  0  0  0  0  0  0  0
    3.8283    1.3545    0.5253 H   0  0  0  0  0  0  0  0  0  0  0  0
    4.8169    1.1530    1.8862 H   0  0  0  0  0  0  0  0  0  0  0  0
    4.8367   -0.0431    0.5188 H   0  0  0  0  0  0  0  0  0  0  0  0
    4.4358    2.9880   -1.0907 H   0  0  0  0  0  0  0  0  0  0  0  0
    5.4255    0.2138   -2.0022 H   0  0  0  0  0  0  0  0  0  0  0  0
    4.0026    2.4369   -3.6197 H   0  0  0  0  0  0  0  0  0  0  0  0
    6.8680    1.6162   -2.9972 H   0  0  0  0  0  0  0  0  0  0  0  0
    6.1479    4.3998   -3.9136 H   0  0  0  0  0  0  0  0  0  0  0  0
    8.2821    2.2379   -4.1064 H   0  0  0  0  0  0  0  0  0  0  0  0
    8.9328    5.2209   -4.2466 H   0  0  0  0  0  0  0  0  0  0  0  0
   10.1830    2.3686   -4.5265 H   0  0  0  0  0  0  0  0  0  0  0  0
   12.0259    4.1679   -3.8829 H   0  0  0  0  0  0  0  0  0  0  0  0
   11.9360    3.7307   -1.5820 H   0  0  0  0  0  0  0  0  0  0  0  0
   10.0651    4.0736   -0.3782 H   0  0  0  0  0  0  0  0  0  0  0  0
    8.7003    1.9490   -1.5819 H   0  0  0  0  0  0  0  0  0  0  0  0
    7.7713    0.7342   -0.0232 H   0  0  0  0  0  0  0  0  0  0  0  0
  1  2  1  0  0  0  0
  1 16  1  0  0  0  0
  1 17  1  0  0  0  0
  1 18  1  0  0  0  0
  2  3  1  0  0  0  0
  2 15  2  0  0  0  0
  3  4  2  0  0  0  0
  3 19  1  0  0  0  0
  4  5  1  0  0  0  0
  4 20  1  0  0  0  0
  5  6  2  0  0  0  0
  5 21  1  0  0  0  0
  6  7  1  0  0  0  0
  6 22  1  0  0  0  0
  7  8  2  0  0  0  0
  7 23  1  0  0  0  0
  8  9  1  0  0  0  0
  8 24  1  0  0  0  0
  9 10  2  0  0  0  0
  9 25  1  0  0  0  0
 10 11  1  0  0  0  0
 10 26  1  0  0  0  0
 11 12  2  0  0  0  0
 11 27  1  0  0  0  0
 12 13  1  0  0  0  0
 12 28  1  0  0  0  0
 13 14  2  0  0  0  0
 13 29  1  0  0  0  0
 14 15  1  0  0  0  0
 14 30  1  0  0  0  0
 15 31  1  0  0  0  0
M  END
$$$$
