
 OpenBabel04232216513D

157157  0  0  1  0  0  0  0  0999 V2000
  193.1033  339.7528  213.7188 C   0  0  0  0  0  0  0  0  0  0  0  0
  191.0235  335.6517  214.4908 C   0  0  0  0  0  0  0  0  0  0  0  0
  188.6329  331.2095  215.3414 C   0  0  3  0  0  0  0  0  0  0  0  0
  190.6941  336.0216  214.0672 C   0  0  0  0  0  0  0  0  0  0  0  0
  192.4081  339.8685  213.0085 C   0  0  0  0  0  0  0  0  0  0  0  0
  194.0577  343.9053  212.0661 C   0  0  0  0  0  0  0  0  0  0  0  0
  195.8891  347.5567  211.5179 C   0  0  0  0  0  0  0  0  0  0  0  0
  197.0001  350.2921  211.3697 C   0  0  0  0  0  0  0  0  0  0  0  0
  196.8593  352.5480  210.9913 C   0  0  0  0  0  0  0  0  0  0  0  0
  195.8299  350.7950  211.3881 C   0  0  0  0  0  0  0  0  0  0  0  0
  194.9415  349.2108  211.0127 C   0  0  0  0  0  0  0  0  0  0  0  0
  194.3172  347.3876  211.1407 C   0  0  0  0  0  0  0  0  0  0  0  0
  195.4168  346.2178  210.5581 C   0  0  0  0  0  0  0  0  0  0  0  0
  194.8627  347.3890  212.5771 C   0  0  0  0  0  0  0  0  0  0  0  0
  193.8274  346.1738  212.3394 C   0  0  0  0  0  0  0  0  0  0  0  0
  193.9875  345.1139  213.3089 C   0  0  0  0  0  0  0  0  0  0  0  0
  192.9855  344.0461  212.7597 C   0  0  0  0  0  0  0  0  0  0  0  0
  192.4616  342.4414  213.8884 C   0  0  0  0  0  0  0  0  0  0  0  0
  191.0526  341.1636  213.7368 C   0  0  0  0  0  0  0  0  0  0  0  0
  191.7090  340.4757  214.0430 C   0  0  0  0  0  0  0  0  0  0  0  0
  191.0339  339.9710  212.2686 C   0  0  0  0  0  0  0  0  0  0  0  0
  190.6213  338.7254  213.9410 C   0  0  0  0  0  0  0  0  0  0  0  0
  189.8604  337.5564  214.0804 C   0  0  0  0  0  0  0  0  0  0  0  0
  189.6254  336.3748  214.9809 C   0  0  0  0  0  0  0  0  0  0  0  0
  188.9674  335.2581  214.5992 C   0  0  0  0  0  0  0  0  0  0  0  0
  188.6203  334.1246  215.4911 C   0  0  0  0  0  0  0  0  0  0  0  0
  187.8598  333.1134  215.0757 C   0  0  0  0  0  0  0  0  0  0  0  0
  187.6728  331.7930  216.0783 C   0  0  0  0  0  0  0  0  0  0  0  0
  186.9406  330.8697  215.6488 C   0  0  0  0  0  0  0  0  0  0  0  0
  186.7649  329.6504  216.4614 C   0  0  0  0  0  0  0  0  0  0  0  0
  185.7749  328.8129  216.1497 C   0  0  0  0  0  0  0  0  0  0  0  0
  184.9642  327.7937  216.0167 C   0  0  0  0  0  0  0  0  0  0  0  0
  184.5140  326.8971  216.6300 C   0  0  0  0  0  0  0  0  0  0  0  0
  184.0731  325.4499  217.0617 C   0  0  0  0  0  0  0  0  0  0  0  0
  183.6394  324.2990  217.2297 C   0  0  0  0  0  0  0  0  0  0  0  0
  183.5238  323.1364  218.0136 C   0  0  0  0  0  0  0  0  0  0  0  0
  182.4834  322.3073  217.6651 C   0  0  0  0  0  0  0  0  0  0  0  0
  181.4536  322.1935  218.8366 C   0  0  0  0  0  0  0  0  0  0  0  0
  181.0888  320.3083  218.4043 C   0  0  0  0  0  0  0  0  0  0  0  0
  179.7362  318.4728  218.6083 C   0  0  0  0  0  0  0  0  0  0  0  0
  178.7239  317.5005  219.4607 C   0  0  0  0  0  0  0  0  0  0  0  0
  179.2520  315.9880  219.9745 C   0  0  0  0  0  0  0  0  0  0  0  0
  178.2736  314.5704  219.6175 C   0  0  0  0  0  0  0  0  0  0  0  0
  178.7442  315.1241  220.5046 C   0  0  0  0  0  0  0  0  0  0  0  0
  178.0900  313.5517  219.8434 C   0  0  0  0  0  0  0  0  0  0  0  0
  177.6068  312.5516  220.5940 C   0  0  0  0  0  0  0  0  0  0  0  0
  176.9011  311.3321  220.5638 C   0  0  0  0  0  0  0  0  0  0  0  0
  176.7957  310.6053  222.5084 C   0  0  0  0  0  0  0  0  0  0  0  0
  176.0519  308.9430  222.2035 C   0  0  0  0  0  0  0  0  0  0  0  0
  177.3570  308.7519  223.6355 C   0  0  0  0  0  0  0  0  0  0  0  0
  176.4916  307.0881  223.1968 C   0  0  0  0  0  0  0  0  0  0  0  0
  176.4902  305.2533  221.7246 C   0  0  0  0  0  0  0  0  0  0  0  0
  174.4298  304.8747  221.3139 C   0  0  0  0  0  0  0  0  0  0  0  0
  173.2406  303.9500  222.9488 C   0  0  0  0  0  0  0  0  0  0  0  0
  172.5379  302.7963  222.3105 C   0  0  0  0  0  0  0  0  0  0  0  0
  171.9766  302.2148  223.3274 C   0  0  0  0  0  0  0  0  0  0  0  0
  171.4623  300.5701  222.9920 C   0  0  0  0  0  0  0  0  0  0  0  0
  170.4767  299.1687  223.8066 C   0  0  0  0  0  0  0  0  0  0  0  0
  169.4213  297.7404  223.8380 C   0  0  0  0  0  0  0  0  0  0  0  0
  170.0504  297.4688  224.8472 C   0  0  0  0  0  0  0  0  0  0  0  0
  169.1601  296.3668  224.0509 C   0  0  0  0  0  0  0  0  0  0  0  0
  168.4360  295.3878  224.9020 C   0  0  0  0  0  0  0  0  0  0  0  0
  167.9791  294.0452  224.3280 C   0  0  0  0  0  0  0  0  0  0  0  0
  167.2030  293.0445  225.3343 C   0  0  0  0  0  0  0  0  0  0  0  0
  165.9671  292.1618  225.8650 C   0  0  0  0  0  0  0  0  0  0  0  0
  166.7038  291.5729  224.4986 C   0  0  0  0  0  0  0  0  0  0  0  0
  166.0599  289.7757  225.3153 C   0  0  0  0  0  0  0  0  0  0  0  0
  165.4923  289.5350  224.8775 C   0  0  0  0  0  0  0  0  0  0  0  0
  167.5090  291.5388  225.3258 C   0  0  0  0  0  0  0  0  0  0  0  0
  169.9048  295.2677  224.5849 C   0  0  0  0  0  0  0  0  0  0  0  0
  171.8884  298.7627  223.6031 C   0  0  0  0  0  0  0  0  0  0  0  0
  174.1711  302.9695  222.6918 C   0  0  0  0  0  0  0  0  0  0  0  0
  176.3406  307.0334  221.5425 C   0  0  0  0  0  0  0  0  0  0  0  0
  178.7206  311.6968  220.5034 C   0  0  0  0  0  0  0  0  0  0  0  0
  181.2945  316.1090  219.1573 C   0  0  0  0  0  0  0  0  0  0  0  0
  183.6624  321.3261  217.9386 C   0  0  0  0  0  0  0  0  0  0  0  0
  185.9738  325.7808  216.7409 C   0  0  0  0  0  0  0  0  0  0  0  0
  194.4236  342.4920  213.1378 H   0  0  0  0  0  0  0  0  0  0  0  0
  194.4119  342.5004  213.1511 H   0  0  0  0  0  0  0  0  0  0  0  0
  194.4332  342.4823  213.1148 H   0  0  0  0  0  0  0  0  0  0  0  0
  192.3519  338.2322  214.1091 H   0  0  0  0  0  0  0  0  0  0  0  0
  192.3851  338.2064  214.0665 H   0  0  0  0  0  0  0  0  0  0  0  0
  189.8394  333.5966  214.9633 H   0  0  0  0  0  0  0  0  0  0  0  0
  191.7326  338.4429  213.3511 H   0  0  0  0  0  0  0  0  0  0  0  0
  193.5518  342.2119  212.5840 H   0  0  0  0  0  0  0  0  0  0  0  0
  195.4517  346.5355  211.7087 H   0  0  0  0  0  0  0  0  0  0  0  0
  196.6900  349.7352  210.8934 H   0  0  0  0  0  0  0  0  0  0  0  0
  198.1929  352.9035  211.7994 H   0  0  0  0  0  0  0  0  0  0  0  0
  197.1297  352.7852  209.4952 H   0  0  0  0  0  0  0  0  0  0  0  0
  195.4669  351.5046  209.9001 H   0  0  0  0  0  0  0  0  0  0  0  0
  195.8490  350.2144  210.2102 H   0  0  0  0  0  0  0  0  0  0  0  0
  193.4113  347.8354  212.4292 H   0  0  0  0  0  0  0  0  0  0  0  0
  195.3446  347.8152  210.2261 H   0  0  0  0  0  0  0  0  0  0  0  0
  194.8393  349.2179  212.4866 H   0  0  0  0  0  0  0  0  0  0  0  0
  193.8077  346.1093  211.1057 H   0  0  0  0  0  0  0  0  0  0  0  0
  193.5649  345.0998  213.9766 H   0  0  0  0  0  0  0  0  0  0  0  0
  192.8935  344.1183  211.6638 H   0  0  0  0  0  0  0  0  0  0  0  0
  193.1792  343.2749  214.7382 H   0  0  0  0  0  0  0  0  0  0  0  0
  190.9020  341.5389  212.1356 H   0  0  0  0  0  0  0  0  0  0  0  0
  192.8699  341.1020  214.5666 H   0  0  0  0  0  0  0  0  0  0  0  0
  190.5466  339.7066  212.8174 H   0  0  0  0  0  0  0  0  0  0  0  0
  191.8067  338.1914  215.1067 H   0  0  0  0  0  0  0  0  0  0  0  0
  189.5917  337.5853  213.2120 H   0  0  0  0  0  0  0  0  0  0  0  0
  189.6289  335.2323  214.1901 H   0  0  0  0  0  0  0  0  0  0  0  0
  188.4660  335.4176  213.7364 H   0  0  0  0  0  0  0  0  0  0  0  0
  187.9516  333.5274  215.7012 H   0  0  0  0  0  0  0  0  0  0  0  0
  187.4048  333.2297  214.2627 H   0  0  0  0  0  0  0  0  0  0  0  0
  188.4200  331.7197  216.8594 H   0  0  0  0  0  0  0  0  0  0  0  0
  186.3225  331.0529  214.8216 H   0  0  0  0  0  0  0  0  0  0  0  0
  187.4856  328.8788  216.3347 H   0  0  0  0  0  0  0  0  0  0  0  0
  185.2253  328.9057  215.3254 H   0  0  0  0  0  0  0  0  0  0  0  0
  186.2041  327.3302  217.1484 H   0  0  0  0  0  0  0  0  0  0  0  0
  184.0855  326.6766  215.8289 H   0  0  0  0  0  0  0  0  0  0  0  0
  184.2941  324.5698  215.7382 H   0  0  0  0  0  0  0  0  0  0  0  0
  183.0103  324.5008  216.4018 H   0  0  0  0  0  0  0  0  0  0  0  0
  182.6680  322.9096  218.4257 H   0  0  0  0  0  0  0  0  0  0  0  0
  181.9241  322.3400  216.9015 H   0  0  0  0  0  0  0  0  0  0  0  0
  182.6566  321.2183  219.5146 H   0  0  0  0  0  0  0  0  0  0  0  0
  180.8264  320.1672  217.4233 H   0  0  0  0  0  0  0  0  0  0  0  0
  178.0520  317.6388  218.4751 H   0  0  0  0  0  0  0  0  0  0  0  0
  179.5982  317.8999  218.1209 H   0  0  0  0  0  0  0  0  0  0  0  0
  180.4484  316.1035  220.8764 H   0  0  0  0  0  0  0  0  0  0  0  0
  178.5751  315.6387  218.5970 H   0  0  0  0  0  0  0  0  0  0  0  0
  179.6430  314.6850  221.2250 H   0  0  0  0  0  0  0  0  0  0  0  0
  177.4525  313.5569  218.9232 H   0  0  0  0  0  0  0  0  0  0  0  0
  178.0681  312.5108  221.6750 H   0  0  0  0  0  0  0  0  0  0  0  0
  176.4312  311.4338  219.5578 H   0  0  0  0  0  0  0  0  0  0  0  0
  177.5317  311.8765  222.5690 H   0  0  0  0  0  0  0  0  0  0  0  0
  175.4661  309.0746  220.5403 H   0  0  0  0  0  0  0  0  0  0  0  0
  176.6965  308.8956  222.3201 H   0  0  0  0  0  0  0  0  0  0  0  0
  175.1142  307.0446  221.9078 H   0  0  0  0  0  0  0  0  0  0  0  0
  177.6287  305.6821  223.0224 H   0  0  0  0  0  0  0  0  0  0  0  0
  173.1699  304.9220  221.1248 H   0  0  0  0  0  0  0  0  0  0  0  0
  172.5048  304.3596  224.3904 H   0  0  0  0  0  0  0  0  0  0  0  0
  172.0203  302.7361  221.5928 H   0  0  0  0  0  0  0  0  0  0  0  0
  171.2611  303.2510  224.1434 H   0  0  0  0  0  0  0  0  0  0  0  0
  170.9386  300.5523  222.1485 H   0  0  0  0  0  0  0  0  0  0  0  0
  169.0307  298.9293  223.0906 H   0  0  0  0  0  0  0  0  0  0  0  0
  169.3013  298.0453  222.3657 H   0  0  0  0  0  0  0  0  0  0  0  0
  171.4258  296.1235  224.6451 H   0  0  0  0  0  0  0  0  0  0  0  0
  168.7241  296.1860  223.1815 H   0  0  0  0  0  0  0  0  0  0  0  0
  167.7014  294.7662  224.8772 H   0  0  0  0  0  0  0  0  0  0  0  0
  167.6051  294.0043  223.6450 H   0  0  0  0  0  0  0  0  0  0  0  0
  167.9537  291.7452  224.3886 H   0  0  0  0  0  0  0  0  0  0  0  0
  166.4534  291.8769  224.3630 H   0  0  0  0  0  0  0  0  0  0  0  0
  168.2395  291.1191  226.2487 H   0  0  0  0  0  0  0  0  0  0  0  0
  165.3705  289.7330  224.6457 H   0  0  0  0  0  0  0  0  0  0  0  0
  166.1558  288.2275  225.2439 H   0  0  0  0  0  0  0  0  0  0  0  0
  165.6217  289.1291  225.4737 H   0  0  0  0  0  0  0  0  0  0  0  0
  168.1931  292.5447  225.5882 H   0  0  0  0  0  0  0  0  0  0  0  0
  170.3877  295.8220  224.5223 H   0  0  0  0  0  0  0  0  0  0  0  0
  172.8426  300.2896  223.4197 H   0  0  0  0  0  0  0  0  0  0  0  0
  174.9661  304.3493  222.4554 H   0  0  0  0  0  0  0  0  0  0  0  0
  177.6818  309.5102  221.1238 H   0  0  0  0  0  0  0  0  0  0  0  0
  179.9382  313.9433  220.0215 H   0  0  0  0  0  0  0  0  0  0  0  0
  182.4859  319.5288  218.7058 H   0  0  0  0  0  0  0  0  0  0  0  0
  186.8890  327.4654  216.2696 H   0  0  0  0  0  0  0  0  0  0  0  0
  1  2  1  0  0  0  0
  1 78  1  0  0  0  0
  1 79  1  0  0  0  0
  1 80  1  0  0  0  0
  2  3  1  0  0  0  0
  2 81  1  0  0  0  0
  2 82  1  0  0  0  0
  3  4  1  0  0  0  0
  3 77  1  0  0  0  0
  3 83  1  0  0  0  0
  4  5  2  3  0  0  0
  4 84  1  0  0  0  0
  5  6  1  0  0  0  0
  5 85  1  0  0  0  0
  6  7  2  3  0  0  0
  6 86  1  0  0  0  0
  7  8  1  0  0  0  0
  7 87  1  0  0  0  0
  8  9  2  3  0  0  0
  8 88  1  0  0  0  0
  9 10  1  0  0  0  0
  9 89  1  0  0  0  0
 10 11  2  3  0  0  0
 10 90  1  0  0  0  0
 11 12  1  0  0  0  0
 11 91  1  0  0  0  0
 12 13  2  3  0  0  0
 12 92  1  0  0  0  0
 13 14  1  0  0  0  0
 13 93  1  0  0  0  0
 14 15  2  3  0  0  0
 14 94  1  0  0  0  0
 15 16  1  0  0  0  0
 15 95  1  0  0  0  0
 16 17  2  3  0  0  0
 16 96  1  0  0  0  0
 17 18  1  0  0  0  0
 17 97  1  0  0  0  0
 18 19  2  3  0  0  0
 18 98  1  0  0  0  0
 19 20  1  0  0  0  0
 19 99  1  0  0  0  0
 20 21  2  3  0  0  0
 20100  1  0  0  0  0
 21 22  1  0  0  0  0
 21101  1  0  0  0  0
 22 23  2  3  0  0  0
 22102  1  0  0  0  0
 23 24  1  0  0  0  0
 23103  1  0  0  0  0
 24 25  2  3  0  0  0
 24104  1  0  0  0  0
 25 26  1  0  0  0  0
 25105  1  0  0  0  0
 26 27  2  3  0  0  0
 26106  1  0  0  0  0
 27 28  1  0  0  0  0
 27107  1  0  0  0  0
 28 29  2  3  0  0  0
 28108  1  0  0  0  0
 29 30  1  0  0  0  0
 29109  1  0  0  0  0
 30 31  2  3  0  0  0
 30110  1  0  0  0  0
 31 32  1  0  0  0  0
 31111  1  0  0  0  0
 32 33  2  3  0  0  0
 32112  1  0  0  0  0
 33 34  1  0  0  0  0
 33113  1  0  0  0  0
 34 35  2  3  0  0  0
 34114  1  0  0  0  0
 35 36  1  0  0  0  0
 35115  1  0  0  0  0
 36 37  2  3  0  0  0
 36116  1  0  0  0  0
 37 38  1  0  0  0  0
 37117  1  0  0  0  0
 38 39  2  3  0  0  0
 38118  1  0  0  0  0
 39 40  1  0  0  0  0
 39119  1  0  0  0  0
 40 41  2  3  0  0  0
 40120  1  0  0  0  0
 41 42  1  0  0  0  0
 41121  1  0  0  0  0
 42 43  2  3  0  0  0
 42122  1  0  0  0  0
 43 44  1  0  0  0  0
 43123  1  0  0  0  0
 44 45  2  3  0  0  0
 44124  1  0  0  0  0
 45 46  1  0  0  0  0
 45125  1  0  0  0  0
 46 47  2  3  0  0  0
 46126  1  0  0  0  0
 47 48  1  0  0  0  0
 47127  1  0  0  0  0
 48 49  2  3  0  0  0
 48128  1  0  0  0  0
 49 50  1  0  0  0  0
 49129  1  0  0  0  0
 50 51  2  3  0  0  0
 50130  1  0  0  0  0
 51 52  1  0  0  0  0
 51131  1  0  0  0  0
 52 53  2  3  0  0  0
 52132  1  0  0  0  0
 53 54  1  0  0  0  0
 53133  1  0  0  0  0
 54 55  2  3  0  0  0
 54134  1  0  0  0  0
 55 56  1  0  0  0  0
 55135  1  0  0  0  0
 56 57  2  3  0  0  0
 56136  1  0  0  0  0
 57 58  1  0  0  0  0
 57137  1  0  0  0  0
 58 59  2  3  0  0  0
 58138  1  0  0  0  0
 59 60  1  0  0  0  0
 59139  1  0  0  0  0
 60 61  2  3  0  0  0
 60140  1  0  0  0  0
 61 62  1  0  0  0  0
 61141  1  0  0  0  0
 62 63  2  3  0  0  0
 62142  1  0  0  0  0
 63 64  1  0  0  0  0
 63143  1  0  0  0  0
 64 65  2  3  0  0  0
 64144  1  0  0  0  0
 65 66  1  0  0  0  0
 65145  1  0  0  0  0
 66 67  2  3  0  0  0
 66146  1  0  0  0  0
 67 68  1  0  0  0  0
 67147  1  0  0  0  0
 68 69  2  3  0  0  0
 68148  1  0  0  0  0
 69 70  1  0  0  0  0
 69149  1  0  0  0  0
 70 71  2  3  0  0  0
 70150  1  0  0  0  0
 71 72  1  0  0  0  0
 71151  1  0  0  0  0
 72 73  2  3  0  0  0
 72152  1  0  0  0  0
 73 74  1  0  0  0  0
 73153  1  0  0  0  0
 74 75  2  3  0  0  0
 74154  1  0  0  0  0
 75 76  1  0  0  0  0
 75155  1  0  0  0  0
 76 77  2  3  0  0  0
 76156  1  0  0  0  0
 77157  1  0  0  0  0
M  END
$$$$
