
 OpenBabel04232216473D

 48 49  0  0  0  0  0  0  0  0999 V2000
    8.8870   -5.7839   -0.7696 C   0  0  0  0  0  0  0  0  0  0  0  0
    9.3837   -5.5503    0.6641 C   0  0  0  0  0  0  0  0  0  0  0  0
    8.0592   -5.0302    1.3658 C   0  0  0  0  0  0  0  0  0  0  0  0
    7.2216   -3.9789    1.0382 C   0  0  0  0  0  0  0  0  0  0  0  0
    7.2645   -3.3455   -0.1917 O   0  0  0  0  0  0  0  0  0  0  0  0
    6.4199   -3.1895    1.9017 N   0  0  0  0  0  0  0  0  0  0  0  0
    5.1686   -3.7151    2.5189 C   0  0  0  0  0  0  0  0  0  0  0  0
    3.9079   -2.8238    2.5499 C   0  0  0  0  0  0  0  0  0  0  0  0
    2.8241   -3.6486    2.7263 F   0  0  0  0  0  0  0  0  0  0  0  0
    7.0199   -2.0005    2.4128 C   0  0  0  0  0  0  0  0  0  0  0  0
    8.2463   -1.5556    2.0937 C   0  0  0  0  0  0  0  0  0  0  0  0
    9.5244   -2.1569    2.3756 C   0  0  0  0  0  0  0  0  0  0  0  0
    9.9898   -3.1763    3.1217 C   0  0  0  0  0  0  0  0  0  0  0  0
    9.3220   -4.2455    3.9416 C   0  0  0  0  0  0  0  0  0  0  0  0
   11.4103   -3.3186    2.9661 C   0  0  0  0  0  0  0  0  0  0  0  0
   12.3180   -3.8072    3.8211 C   0  0  0  0  0  0  0  0  0  0  0  0
   13.6363   -4.0678    3.2343 C   0  0  0  0  0  0  0  0  0  0  0  0
   13.5552   -5.1428    2.4273 C   0  0  0  0  0  0  0  0  0  0  0  0
   12.8481   -5.0104    1.2030 N   0  0  0  0  0  0  0  0  0  0  0  0
   12.1473   -6.0492    0.7876 C   0  0  0  0  0  0  0  0  0  0  0  0
   12.9744   -7.2974    0.6380 C   0  0  0  0  0  0  0  0  0  0  0  0
   12.7694   -8.1961    1.6150 C   0  0  0  0  0  0  0  0  0  0  0  0
   11.6137   -8.0902    2.4797 C   0  0  0  0  0  0  0  0  0  0  0  0
   10.5581   -7.2551    2.2642 C   0  0  0  0  0  0  0  0  0  0  0  0
   10.5126   -6.2956    1.1195 C   0  0  0  0  0  0  0  0  0  0  0  0
    9.5224   -5.3587   -1.5399 H   0  0  0  0  0  0  0  0  0  0  0  0
    7.8849   -5.3726   -0.9602 H   0  0  0  0  0  0  0  0  0  0  0  0
    8.6981   -6.8539   -0.9180 H   0  0  0  0  0  0  0  0  0  0  0  0
    7.8565   -5.4619    2.3288 H   0  0  0  0  0  0  0  0  0  0  0  0
    6.6284   -2.6590   -0.0779 H   0  0  0  0  0  0  0  0  0  0  0  0
    5.3923   -3.9954    3.5534 H   0  0  0  0  0  0  0  0  0  0  0  0
    4.8774   -4.6264    1.9905 H   0  0  0  0  0  0  0  0  0  0  0  0
    3.7208   -2.2597    1.6317 H   0  0  0  0  0  0  0  0  0  0  0  0
    3.8896   -2.1248    3.3948 H   0  0  0  0  0  0  0  0  0  0  0  0
    6.2497   -1.2313    2.3451 H   0  0  0  0  0  0  0  0  0  0  0  0
    8.3021   -1.1987    1.0497 H   0  0  0  0  0  0  0  0  0  0  0  0
   10.2786   -1.5987    1.8030 H   0  0  0  0  0  0  0  0  0  0  0  0
    8.2516   -4.1020    4.0846 H   0  0  0  0  0  0  0  0  0  0  0  0
    9.7860   -4.4146    4.9127 H   0  0  0  0  0  0  0  0  0  0  0  0
    9.4595   -5.2123    3.4544 H   0  0  0  0  0  0  0  0  0  0  0  0
   11.7575   -3.0649    1.9557 H   0  0  0  0  0  0  0  0  0  0  0  0
   12.0679   -4.1651    4.8085 H   0  0  0  0  0  0  0  0  0  0  0  0
   13.9567   -3.1529    2.7261 H   0  0  0  0  0  0  0  0  0  0  0  0
   13.3902   -6.0603    3.0128 H   0  0  0  0  0  0  0  0  0  0  0  0
   13.9434   -7.2267    0.1368 H   0  0  0  0  0  0  0  0  0  0  0  0
   13.5546   -8.9142    1.8388 H   0  0  0  0  0  0  0  0  0  0  0  0
   11.6657   -8.7260    3.3601 H   0  0  0  0  0  0  0  0  0  0  0  0
    9.7231   -7.3002    2.9471 H   0  0  0  0  0  0  0  0  0  0  0  0
  1  2  1  0  0  0  0
  1 26  1  0  0  0  0
  1 27  1  0  0  0  0
  1 28  1  0  0  0  0
  2  3  1  0  0  0  0
  2 25  2  3  0  0  0
  3  4  2  3  0  0  0
  3 29  1  0  0  0  0
  4  5  1  0  0  0  0
  4  6  1  0  0  0  0
  5 30  1  0  0  0  0
  6  7  1  0  0  0  0
  6 10  1  0  0  0  0
  7  8  1  0  0  0  0
  7 31  1  0  0  0  0
  7 32  1  0  0  0  0
  8  9  1  0  0  0  0
  8 33  1  0  0  0  0
  8 34  1  0  0  0  0
 10 11  2  3  0  0  0
 10 35  1  0  0  0  0
 11 12  1  0  0  0  0
 11 36  1  0  0  0  0
 12 13  2  3  0  0  0
 12 37  1  0  0  0  0
 13 14  1  0  0  0  0
 13 15  1  0  0  0  0
 14 38  1  0  0  0  0
 14 39  1  0  0  0  0
 14 40  1  0  0  0  0
 15 16  2  3  0  0  0
 15 41  1  0  0  0  0
 16 17  1  0  0  0  0
 16 42  1  0  0  0  0
 17 18  2  3  0  0  0
 17 43  1  0  0  0  0
 18 19  1  0  0  0  0
 18 44  1  0  0  0  0
 19 20  2  3  0  0  0
 20 21  1  0  0  0  0
 20 25  1  0  0  0  0
 21 22  2  0  0  0  0
 21 45  1  0  0  0  0
 22 23  1  0  0  0  0
 22 46  1  0  0  0  0
 23 24  2  0  0  0  0
 23 47  1  0  0  0  0
 24 25  1  0  0  0  0
 24 48  1  0  0  0  0
M  END
$$$$
