
 OpenBabel04232216583D

137136  0  0  0  0  0  0  0  0999 V2000
   49.2580   35.0092   16.5928 N   0  0  0  0  0  0  0  0  0  0  0  0
   49.0178   35.6896   15.3505 N   0  0  0  0  0  0  0  0  0  0  0  0
   49.1536   34.7178   14.2535 C   0  0  0  0  0  0  0  0  0  0  0  0
   48.8040   35.3631   12.8990 C   0  0  0  0  0  0  0  0  0  0  0  0
   48.9652   34.4456   11.7564 N   0  0  0  0  0  0  0  0  0  0  0  0
   48.0464   33.3700   11.9179 N   0  0  0  0  0  0  0  0  0  0  0  0
   48.2736   32.3976   10.9393 N   0  0  0  0  0  0  0  0  0  0  0  0
   47.4191   31.2942   11.1782 N   0  0  0  0  0  0  0  0  0  0  0  0
   46.0562   31.5925   10.9454 N   0  0  0  0  0  0  0  0  0  0  0  0
   45.8304   32.3558    9.7716 N   0  0  0  0  0  0  0  0  0  0  0  0
   45.9971   31.4804    8.6495 N   0  0  0  0  0  0  0  0  0  0  0  0
   45.1253   30.3362    8.8195 N   0  0  0  0  0  0  0  0  0  0  0  0
   43.7557   30.7580    8.8705 N   0  0  0  0  0  0  0  0  0  0  0  0
   43.3902   31.3845    7.6340 N   0  0  0  0  0  0  0  0  0  0  0  0
   43.6993   30.4909    6.5450 N   0  0  0  0  0  0  0  0  0  0  0  0
   42.8737   29.3080    6.6474 N   0  0  0  0  0  0  0  0  0  0  0  0
   41.4777   29.6682    6.6462 N   0  0  0  0  0  0  0  0  0  0  0  0
   41.1773   30.5097    5.5072 N   0  0  0  0  0  0  0  0  0  0  0  0
   41.4745   29.8275    4.2771 N   0  0  0  0  0  0  0  0  0  0  0  0
   40.8043   28.5641    4.2374 N   0  0  0  0  0  0  0  0  0  0  0  0
   39.3846   28.7059    4.0535 N   0  0  0  0  0  0  0  0  0  0  0  0
   39.0280   29.3725    2.8206 N   0  0  0  0  0  0  0  0  0  0  0  0
   39.7117   28.7785    1.6837 N   0  0  0  0  0  0  0  0  0  0  0  0
   39.2613   27.4417    1.5150 N   0  0  0  0  0  0  0  0  0  0  0  0
   39.8092   26.6857    0.1746 S   0  0  0  0  0  0  0  0  0  0  0  0
   41.3150   26.0758    0.5019 N   0  0  0  0  0  0  0  0  0  0  0  0
   41.4530   25.0785    1.8150 S   0  0  0  0  0  0  0  0  0  0  0  0
   40.4192   23.7949    1.7348 N   0  0  0  0  0  0  0  0  0  0  0  0
   40.4966   22.9177    0.3473 S   0  0  0  0  0  0  0  0  0  0  0  0
   39.8116   21.4409    0.6573 N   0  0  0  0  0  0  0  0  0  0  0  0
   38.1967   21.4856    1.0274 S   0  0  0  0  0  0  0  0  0  0  0  0
   37.4281   22.0664   -0.3209 N   0  0  0  0  0  0  0  0  0  0  0  0
   35.8208   21.6652   -0.3863 S   0  0  0  0  0  0  0  0  0  0  0  0
   34.9748   22.5410    0.7362 N   0  0  0  0  0  0  0  0  0  0  0  0
   34.9401   24.1765    0.4296 S   0  0  0  0  0  0  0  0  0  0  0  0
   36.3286   24.8126    1.0513 N   0  0  0  0  0  0  0  0  0  0  0  0
   36.1410   26.3739    1.5744 S   0  0  0  0  0  0  0  0  0  0  0  0
   36.2070   26.4296    3.2353 N   0  0  0  0  0  0  0  0  0  0  0  0
   37.6313   25.9087    3.9006 S   0  0  0  0  0  0  0  0  0  0  0  0
   37.3484   24.4036    4.5130 N   0  0  0  0  0  0  0  0  0  0  0  0
   38.3584   24.0590    5.7759 S   0  0  0  0  0  0  0  0  0  0  0  0
   37.7416   24.8267    7.1062 N   0  0  0  0  0  0  0  0  0  0  0  0
   38.0781   23.9920    8.4934 S   0  0  0  0  0  0  0  0  0  0  0  0
   39.7144   24.0974    8.7097 N   0  0  0  0  0  0  0  0  0  0  0  0
   40.1220   23.5761   10.2179 S   0  0  0  0  0  0  0  0  0  0  0  0
   41.7653   23.4286   10.2360 N   0  0  0  0  0  0  0  0  0  0  0  0
   42.5916   24.8577   10.1752 S   0  0  0  0  0  0  0  0  0  0  0  0
   42.0722   25.7801   11.4352 N   0  0  0  0  0  0  0  0  0  0  0  0
   42.7908   25.3743   12.8647 S   0  0  0  0  0  0  0  0  0  0  0  0
   41.9924   26.2924   13.9850 N   0  0  0  0  0  0  0  0  0  0  0  0
   42.6654   27.7949   14.1551 S   0  0  0  0  0  0  0  0  0  0  0  0
   42.3584   28.6584   12.7728 N   0  0  0  0  0  0  0  0  0  0  0  0
   40.7566   28.9918   12.5219 S   0  0  0  0  0  0  0  0  0  0  0  0
   40.2523   29.9057   13.7889 N   0  0  0  0  0  0  0  0  0  0  0  0
   40.6265   31.5016   13.6155 S   0  0  0  0  0  0  0  0  0  0  0  0
   40.1746   32.1663   15.0614 N   0  0  0  0  0  0  0  0  0  0  0  0
   38.5713   32.5838   15.1153 S   0  0  0  0  0  0  0  0  0  0  0  0
   37.6785   31.2061   14.8856 N   0  0  0  0  0  0  0  0  0  0  0  0
   37.7279   30.1309   16.1437 S   0  0  0  0  0  0  0  0  0  0  0  0
   37.0799   30.8181   17.4875 N   0  0  0  0  0  0  0  0  0  0  0  0
   35.5266   31.3400   17.3400 S   0  0  0  0  0  0  0  0  0  0  0  0
   34.5246   30.1525   16.8066 N   0  0  0  0  0  0  0  0  0  0  0  0
   34.3905   28.8266   17.7708 S   0  0  0  0  0  0  0  0  0  0  0  0
   33.4413   29.1233   19.0781 N   0  0  0  0  0  0  0  0  0  0  0  0
   32.1094   30.0329   18.8343 S   0  0  0  0  0  0  0  0  0  0  0  0
   30.8400   29.1485   19.3865 N   0  0  0  0  0  0  0  0  0  0  0  0
   29.4345   29.9992   19.5883 S   0  0  0  0  0  0  0  0  0  0  0  0
   29.2966   31.1936   18.4471 N   0  0  0  0  0  0  0  0  0  0  0  0
   29.3220   30.6238   16.8935 S   0  0  0  0  0  0  0  0  0  0  0  0
   29.3113   31.9284   15.8768 N   0  0  0  0  0  0  0  0  0  0  0  0
   30.3005   33.2012   16.2672 S   0  0  0  0  0  0  0  0  0  0  0  0
   31.8559   32.6616   16.2479 N   0  0  0  0  0  0  0  0  0  0  0  0
   32.9965   33.8518   16.3893 S   0  0  0  0  0  0  0  0  0  0  0  0
   32.8237   34.6731   17.8227 N   0  0  0  0  0  0  0  0  0  0  0  0
   32.9906   33.7610   19.1949 S   0  0  0  0  0  0  0  0  0  0  0  0
   34.6023   33.5081   19.4676 N   0  0  0  0  0  0  0  0  0  0  0  0
   34.9299   32.8471   20.9547 S   0  0  0  0  0  0  0  0  0  0  0  0
   34.1342   31.4026   20.9854 N   0  0  0  0  0  0  0  0  0  0  0  0
   34.8780   30.2465   21.8926 S   0  0  0  0  0  0  0  0  0  0  0  0
   33.6612   29.1971   22.2582 N   0  0  0  0  0  0  0  0  0  0  0  0
   34.0275   27.6127   21.9743 S   0  0  0  0  0  0  0  0  0  0  0  0
   49.0051   35.5910   17.3944 H   0  0  0  0  0  0  0  0  0  0  0  0
   50.2340   34.7340   16.7176 H   0  0  0  0  0  0  0  0  0  0  0  0
   49.6456   36.4823   15.1917 H   0  0  0  0  0  0  0  0  0  0  0  0
   48.4838   33.8686   14.4422 H   0  0  0  0  0  0  0  0  0  0  0  0
   50.1810   34.3325   14.2203 H   0  0  0  0  0  0  0  0  0  0  0  0
   49.4667   36.2186   12.7261 H   0  0  0  0  0  0  0  0  0  0  0  0
   47.7816   35.7653   12.9218 H   0  0  0  0  0  0  0  0  0  0  0  0
   49.9177   34.0995   11.7410 H   0  0  0  0  0  0  0  0  0  0  0  0
   47.0674   33.6841   11.8862 H   0  0  0  0  0  0  0  0  0  0  0  0
   49.2525   32.0988   10.9193 H   0  0  0  0  0  0  0  0  0  0  0  0
   47.5352   30.9485   12.1328 H   0  0  0  0  0  0  0  0  0  0  0  0
   45.5515   31.9669   11.7340 H   0  0  0  0  0  0  0  0  0  0  0  0
   46.5250   33.1134    9.7196 H   0  0  0  0  0  0  0  0  0  0  0  0
   46.9606   31.1338    8.7288 H   0  0  0  0  0  0  0  0  0  0  0  0
   45.3282   30.0165    9.7707 H   0  0  0  0  0  0  0  0  0  0  0  0
   43.7287   31.4397    9.6419 H   0  0  0  0  0  0  0  0  0  0  0  0
   43.9931   32.2035    7.5328 H   0  0  0  0  0  0  0  0  0  0  0  0
   44.6797   30.2114    6.7106 H   0  0  0  0  0  0  0  0  0  0  0  0
   43.0649   28.9298    7.5833 H   0  0  0  0  0  0  0  0  0  0  0  0
   41.3717   30.2385    7.4960 H   0  0  0  0  0  0  0  0  0  0  0  0
   41.8804   31.2585    5.5814 H   0  0  0  0  0  0  0  0  0  0  0  0
   42.4875   29.6548    4.3444 H   0  0  0  0  0  0  0  0  0  0  0  0
   40.9881   28.1383    5.1599 H   0  0  0  0  0  0  0  0  0  0  0  0
   38.9876   29.1954    4.8601 H   0  0  0  0  0  0  0  0  0  0  0  0
   39.3367   30.3480    2.9117 H   0  0  0  0  0  0  0  0  0  0  0  0
   40.6983   28.7453    1.9620 H   0  0  0  0  0  0  0  0  0  0  0  0
   38.2468   27.4199    1.6168 H   0  0  0  0  0  0  0  0  0  0  0  0
   41.9766   26.8596    0.6010 H   0  0  0  0  0  0  0  0  0  0  0  0
   39.4776   24.1071    1.9395 H   0  0  0  0  0  0  0  0  0  0  0  0
   40.3532   20.9423    1.3674 H   0  0  0  0  0  0  0  0  0  0  0  0
   37.9000   21.6737   -1.1424 H   0  0  0  0  0  0  0  0  0  0  0  0
   35.3208   22.3497    1.6771 H   0  0  0  0  0  0  0  0  0  0  0  0
   37.0872   24.7706    0.3653 H   0  0  0  0  0  0  0  0  0  0  0  0
   36.1129   27.4142    3.5197 H   0  0  0  0  0  0  0  0  0  0  0  0
   37.5768   23.7453    3.7749 H   0  0  0  0  0  0  0  0  0  0  0  0
   36.7291   24.9213    7.0035 H   0  0  0  0  0  0  0  0  0  0  0  0
   40.0232   25.0577    8.5620 H   0  0  0  0  0  0  0  0  0  0  0  0
   42.0803   22.7976    9.4991 H   0  0  0  0  0  0  0  0  0  0  0  0
   41.0594   25.7110   11.5273 H   0  0  0  0  0  0  0  0  0  0  0  0
   41.9958   25.8112   14.8827 H   0  0  0  0  0  0  0  0  0  0  0  0
   42.7326   28.1546   11.9646 H   0  0  0  0  0  0  0  0  0  0  0  0
   40.6275   29.5410   14.6643 H   0  0  0  0  0  0  0  0  0  0  0  0
   40.7415   32.9963   15.2403 H   0  0  0  0  0  0  0  0  0  0  0  0
   38.0416   30.7400   14.0497 H   0  0  0  0  0  0  0  0  0  0  0  0
   37.6746   31.5937   17.7904 H   0  0  0  0  0  0  0  0  0  0  0  0
   34.7929   29.8791   15.8631 H   0  0  0  0  0  0  0  0  0  0  0  0
   33.9945   29.4650   19.8655 H   0  0  0  0  0  0  0  0  0  0  0  0
   31.0713   28.6260   20.2307 H   0  0  0  0  0  0  0  0  0  0  0  0
   30.0603   31.8581   18.5628 H   0  0  0  0  0  0  0  0  0  0  0  0
   28.3446   32.2377   15.7590 H   0  0  0  0  0  0  0  0  0  0  0  0
   32.0335   32.0981   15.4163 H   0  0  0  0  0  0  0  0  0  0  0  0
   31.9070   35.1176   17.8207 H   0  0  0  0  0  0  0  0  0  0  0  0
   35.1489   34.3543   19.3110 H   0  0  0  0  0  0  0  0  0  0  0  0
   34.0041   31.1008   20.0174 H   0  0  0  0  0  0  0  0  0  0  0  0
   32.7540   29.4909   21.8964 H   0  0  0  0  0  0  0  0  0  0  0  0
   34.6682   27.6907   20.7931 H   0  0  0  0  0  0  0  0  0  0  0  0
  1  2  1  0  0  0  0
  1 82  1  0  0  0  0
  1 83  1  0  0  0  0
  2  3  1  0  0  0  0
  2 84  1  0  0  0  0
  3  4  1  0  0  0  0
  3 85  1  0  0  0  0
  3 86  1  0  0  0  0
  4  5  1  0  0  0  0
  4 87  1  0  0  0  0
  4 88  1  0  0  0  0
  5  6  1  0  0  0  0
  5 89  1  0  0  0  0
  6  7  1  0  0  0  0
  6 90  1  0  0  0  0
  7  8  1  0  0  0  0
  7 91  1  0  0  0  0
  8  9  1  0  0  0  0
  8 92  1  0  0  0  0
  9 10  1  0  0  0  0
  9 93  1  0  0  0  0
 10 11  1  0  0  0  0
 10 94  1  0  0  0  0
 11 12  1  0  0  0  0
 11 95  1  0  0  0  0
 12 13  1  0  0  0  0
 12 96  1  0  0  0  0
 13 14  1  0  0  0  0
 13 97  1  0  0  0  0
 14 15  1  0  0  0  0
 14 98  1  0  0  0  0
 15 16  1  0  0  0  0
 15 99  1  0  0  0  0
 16 17  1  0  0  0  0
 16100  1  0  0  0  0
 17 18  1  0  0  0  0
 17101  1  0  0  0  0
 18 19  1  0  0  0  0
 18102  1  0  0  0  0
 19 20  1  0  0  0  0
 19103  1  0  0  0  0
 20 21  1  0  0  0  0
 20104  1  0  0  0  0
 21 22  1  0  0  0  0
 21105  1  0  0  0  0
 22 23  1  0  0  0  0
 22106  1  0  0  0  0
 23 24  1  0  0  0  0
 23107  1  0  0  0  0
 24 25  1  0  0  0  0
 24108  1  0  0  0  0
 25 26  1  0  0  0  0
 26 27  1  0  0  0  0
 26109  1  0  0  0  0
 27 28  1  0  0  0  0
 28 29  1  0  0  0  0
 28110  1  0  0  0  0
 29 30  1  0  0  0  0
 30 31  1  0  0  0  0
 30111  1  0  0  0  0
 31 32  1  0  0  0  0
 32 33  1  0  0  0  0
 32112  1  0  0  0  0
 33 34  1  0  0  0  0
 34 35  1  0  0  0  0
 34113  1  0  0  0  0
 35 36  1  0  0  0  0
 36 37  1  0  0  0  0
 36114  1  0  0  0  0
 37 38  1  0  0  0  0
 38 39  1  0  0  0  0
 38115  1  0  0  0  0
 39 40  1  0  0  0  0
 40 41  1  0  0  0  0
 40116  1  0  0  0  0
 41 42  1  0  0  0  0
 42 43  1  0  0  0  0
 42117  1  0  0  0  0
 43 44  1  0  0  0  0
 44 45  1  0  0  0  0
 44118  1  0  0  0  0
 45 46  1  0  0  0  0
 46 47  1  0  0  0  0
 46119  1  0  0  0  0
 47 48  1  0  0  0  0
 48 49  1  0  0  0  0
 48120  1  0  0  0  0
 49 50  1  0  0  0  0
 50 51  1  0  0  0  0
 50121  1  0  0  0  0
 51 52  1  0  0  0  0
 52 53  1  0  0  0  0
 52122  1  0  0  0  0
 53 54  1  0  0  0  0
 54 55  1  0  0  0  0
 54123  1  0  0  0  0
 55 56  1  0  0  0  0
 56 57  1  0  0  0  0
 56124  1  0  0  0  0
 57 58  1  0  0  0  0
 58 59  1  0  0  0  0
 58125  1  0  0  0  0
 59 60  1  0  0  0  0
 60 61  1  0  0  0  0
 60126  1  0  0  0  0
 61 62  1  0  0  0  0
 62 63  1  0  0  0  0
 62127  1  0  0  0  0
 63 64  1  0  0  0  0
 64 65  1  0  0  0  0
 64128  1  0  0  0  0
 65 66  1  0  0  0  0
 66 67  1  0  0  0  0
 66129  1  0  0  0  0
 67 68  1  0  0  0  0
 68 69  1  0  0  0  0
 68130  1  0  0  0  0
 69 70  1  0  0  0  0
 70 71  1  0  0  0  0
 70131  1  0  0  0  0
 71 72  1  0  0  0  0
 72 73  1  0  0  0  0
 72132  1  0  0  0  0
 73 74  1  0  0  0  0
 74 75  1  0  0  0  0
 74133  1  0  0  0  0
 75 76  1  0  0  0  0
 76 77  1  0  0  0  0
 76134  1  0  0  0  0
 77 78  1  0  0  0  0
 78 79  1  0  0  0  0
 78135  1  0  0  0  0
 79 80  1  0  0  0  0
 80 81  1  0  0  0  0
 80136  1  0  0  0  0
 81137  1  0  0  0  0
M  END
$$$$
