
 OpenBabel04232216433D

 14 14  0  0  0  0  0  0  0  0999 V2000
    1.0624    1.1047   -0.0843 C   0  0  0  0  0  0  0  0  0  0  0  0
   -0.3609    1.4865    0.0642 C   0  0  0  0  0  0  0  0  0  0  0  0
   -1.4323    0.7732    0.0916 N   0  0  0  0  0  0  0  0  0  0  0  0
   -1.4489   -0.5789   -0.0090 C   0  0  0  0  0  0  0  0  0  0  0  0
   -0.4806   -1.5020   -0.0030 C   0  0  0  0  0  0  0  0  0  0  0  0
   -0.8336   -2.8503   -0.0662 O   0  0  0  0  0  0  0  0  0  0  0  0
    1.0023   -1.3332    0.0830 C   0  0  0  0  0  0  0  0  0  0  0  0
    1.6193   -0.0381   -0.0788 N   0  0  0  0  0  0  0  0  0  0  0  0
    1.7168    1.9852   -0.2076 H   0  0  0  0  0  0  0  0  0  0  0  0
   -0.4931    2.5799    0.1485 H   0  0  0  0  0  0  0  0  0  0  0  0
   -2.4742   -0.9416   -0.0736 H   0  0  0  0  0  0  0  0  0  0  0  0
   -1.8014   -2.9358   -0.0694 H   0  0  0  0  0  0  0  0  0  0  0  0
    1.4380   -1.9731   -0.6961 H   0  0  0  0  0  0  0  0  0  0  0  0
    1.3398   -1.7570    1.0372 H   0  0  0  0  0  0  0  0  0  0  0  0
  1  2  1  0  0  0  0
  1  8  2  0  0  0  0
  1  9  1  0  0  0  0
  2  3  2  0  0  0  0
  2 10  1  0  0  0  0
  3  4  1  0  0  0  0
  4  5  2  0  0  0  0
  4 11  1  0  0  0  0
  5  6  1  0  0  0  0
  5  7  1  0  0  0  0
  6 12  1  0  0  0  0
  7  8  1  0  0  0  0
  7 13  1  0  0  0  0
  7 14  1  0  0  0  0
M  END
$$$$
