
 OpenBabel04232216393D

 43 44  0  0  0  0  0  0  0  0999 V2000
    8.2606    3.4602    1.3356 C   0  0  0  0  0  0  0  0  0  0  0  0
    6.7628    2.6506    0.7140 C   0  0  0  0  0  0  0  0  0  0  0  0
    5.4572    1.8568    1.3322 C   0  0  0  0  0  0  0  0  0  0  0  0
    5.7962    0.8442    2.2842 N   0  0  0  0  0  0  0  0  0  0  0  0
    6.3381    1.4402    3.4025 C   0  0  0  0  0  0  0  0  0  0  0  0
    5.7475    2.2912    4.0549 O   0  0  0  0  0  0  0  0  0  0  0  0
    7.8155    1.1835    3.4304 C   0  0  0  0  0  0  0  0  0  0  0  0
    8.5016    2.2052    4.3500 C   0  0  0  0  0  0  0  0  0  0  0  0
    9.9096    2.1076    4.0346 N   0  0  0  0  0  0  0  0  0  0  0  0
   10.7043    2.9384    3.4953 C   0  0  0  0  0  0  0  0  0  0  0  0
   12.0000    2.4255    3.4904 N   0  0  0  0  0  0  0  0  0  0  0  0
   12.5322    2.3517    4.6294 N   0  0  0  0  0  0  0  0  0  0  0  0
   11.8416    3.0088    5.6742 N   0  0  0  0  0  0  0  0  0  0  0  0
   12.5532    3.4829    6.5782 N   0  0  0  0  0  0  0  0  0  0  0  0
   13.9010    3.2164    6.4235 N   0  0  0  0  0  0  0  0  0  0  0  0
   14.5770    4.1288    7.0180 C   0  0  0  0  0  0  0  0  0  0  0  0
   16.0228    4.2847    6.7325 C   0  0  0  0  0  0  0  0  0  0  0  0
   15.9961    5.5908    6.4636 C   0  0  0  0  0  0  0  0  0  0  0  0
   15.3442    6.2931    5.3303 C   0  0  0  0  0  0  0  0  0  0  0  0
   14.2359    6.3205    4.4777 C   0  0  0  0  0  0  0  0  0  0  0  0
   13.0108    5.3148    4.0161 C   0  0  0  0  0  0  0  0  0  0  0  0
   11.7481    5.3341    3.2309 C   0  0  0  0  0  0  0  0  0  0  0  0
   10.4580    4.2034    2.9425 N   0  0  0  0  0  0  0  0  0  0  0  0
    8.9704    4.3276    2.2393 C   0  0  0  0  0  0  0  0  0  0  0  0
    8.1243    5.2149    2.9226 O   0  0  0  0  0  0  0  0  0  0  0  0
    7.7444    4.3135    0.8069 H   0  0  0  0  0  0  0  0  0  0  0  0
    6.2739    3.3218   -0.0178 H   0  0  0  0  0  0  0  0  0  0  0  0
    7.1806    1.8498    0.0752 H   0  0  0  0  0  0  0  0  0  0  0  0
    4.8974    1.3034    0.5510 H   0  0  0  0  0  0  0  0  0  0  0  0
    4.7099    2.5245    1.7833 H   0  0  0  0  0  0  0  0  0  0  0  0
    6.2975    0.0431    1.9119 H   0  0  0  0  0  0  0  0  0  0  0  0
    8.1863    1.2896    2.4099 H   0  0  0  0  0  0  0  0  0  0  0  0
    8.0175    0.1478    3.7067 H   0  0  0  0  0  0  0  0  0  0  0  0
    8.3341    1.8846    5.3555 H   0  0  0  0  0  0  0  0  0  0  0  0
    8.0972    3.1774    4.2681 H   0  0  0  0  0  0  0  0  0  0  0  0
   14.0944    4.9480    7.5934 H   0  0  0  0  0  0  0  0  0  0  0  0
   16.2660    3.5360    5.9793 H   0  0  0  0  0  0  0  0  0  0  0  0
   16.3015    6.2195    7.3269 H   0  0  0  0  0  0  0  0  0  0  0  0
   16.0696    7.1790    5.2333 H   0  0  0  0  0  0  0  0  0  0  0  0
   14.2582    7.2653    3.9155 H   0  0  0  0  0  0  0  0  0  0  0  0
   13.6484    4.4404    3.8083 H   0  0  0  0  0  0  0  0  0  0  0  0
   12.1117    4.9125    2.2751 H   0  0  0  0  0  0  0  0  0  0  0  0
    7.2396    4.7876    2.9491 H   0  0  0  0  0  0  0  0  0  0  0  0
  1  2  1  0  0  0  0
  1 24  2  3  0  0  0
  1 26  1  0  0  0  0
  2  3  1  0  0  0  0
  2 27  1  0  0  0  0
  2 28  1  0  0  0  0
  3  4  1  0  0  0  0
  3 29  1  0  0  0  0
  3 30  1  0  0  0  0
  4  5  1  0  0  0  0
  4 31  1  0  0  0  0
  5  6  2  0  0  0  0
  5  7  1  0  0  0  0
  7  8  1  0  0  0  0
  7 32  1  0  0  0  0
  7 33  1  0  0  0  0
  8  9  1  0  0  0  0
  8 34  1  0  0  0  0
  8 35  1  0  0  0  0
  9 10  2  3  0  0  0
 10 11  1  0  0  0  0
 10 23  1  0  0  0  0
 11 12  2  3  0  0  0
 12 13  1  0  0  0  0
 13 14  2  3  0  0  0
 14 15  1  0  0  0  0
 15 16  2  3  0  0  0
 16 17  1  0  0  0  0
 16 36  1  0  0  0  0
 17 18  2  3  0  0  0
 17 37  1  0  0  0  0
 18 19  1  0  0  0  0
 18 38  1  0  0  0  0
 19 20  2  3  0  0  0
 19 39  1  0  0  0  0
 20 21  1  0  0  0  0
 20 40  1  0  0  0  0
 21 22  2  3  0  0  0
 21 41  1  0  0  0  0
 22 23  1  0  0  0  0
 22 42  1  0  0  0  0
 23 24  1  0  0  0  0
 24 25  1  0  0  0  0
 25 43  1  0  0  0  0
M  END
$$$$
