
 OpenBabel04232216433D

 37 38  0  0  0  0  0  0  0  0999 V2000
    6.6219    0.7599   -2.2352 C   0  0  0  0  0  0  0  0  0  0  0  0
    5.1509    0.7592   -1.8680 C   0  0  0  0  0  0  0  0  0  0  0  0
    4.4073    1.1114   -0.8168 C   0  0  0  0  0  0  0  0  0  0  0  0
    4.8872    1.7658    0.3706 C   0  0  0  0  0  0  0  0  0  0  0  0
    4.9076    3.2260    0.3061 C   0  0  0  0  0  0  0  0  0  0  0  0
    6.1305    3.7536    0.2194 C   0  0  0  0  0  0  0  0  0  0  0  0
    6.5239    4.8394   -0.6382 C   0  0  0  0  0  0  0  0  0  0  0  0
    7.8303    5.0766   -0.6123 C   0  0  0  0  0  0  0  0  0  0  0  0
    8.6798    5.6902   -1.5937 C   0  0  0  0  0  0  0  0  0  0  0  0
    9.9294    5.7354   -1.1207 C   0  0  0  0  0  0  0  0  0  0  0  0
   10.9542    4.8433   -1.5787 C   0  0  0  0  0  0  0  0  0  0  0  0
   10.9436    3.5331   -1.8935 C   0  0  0  0  0  0  0  0  0  0  0  0
   10.0787    2.3848   -2.2040 C   0  0  0  0  0  0  0  0  0  0  0  0
    9.0429    1.5296   -2.0472 C   0  0  0  0  0  0  0  0  0  0  0  0
    7.8360    1.0503   -1.3050 C   0  0  0  0  0  0  0  0  0  0  0  0
    8.0231    0.2347   -0.2359 C   0  0  0  0  0  0  0  0  0  0  0  0
    7.0463   -0.6542    0.3978 C   0  0  0  0  0  0  0  0  0  0  0  0
    5.9715   -0.2970    1.1253 C   0  0  0  0  0  0  0  0  0  0  0  0
    5.5497    1.0775    1.3123 C   0  0  0  0  0  0  0  0  0  0  0  0
    6.7260    1.3376   -3.1610 H   0  0  0  0  0  0  0  0  0  0  0  0
    6.7825   -0.2879   -2.5405 H   0  0  0  0  0  0  0  0  0  0  0  0
    4.5612    0.3380   -2.6966 H   0  0  0  0  0  0  0  0  0  0  0  0
    3.3223    0.9760   -0.8595 H   0  0  0  0  0  0  0  0  0  0  0  0
    4.0595    3.7365   -0.1397 H   0  0  0  0  0  0  0  0  0  0  0  0
    6.9653    3.1377    0.5667 H   0  0  0  0  0  0  0  0  0  0  0  0
    5.8634    5.2299   -1.4028 H   0  0  0  0  0  0  0  0  0  0  0  0
    8.4100    4.5381    0.1482 H   0  0  0  0  0  0  0  0  0  0  0  0
    8.4721    5.4288   -2.6286 H   0  0  0  0  0  0  0  0  0  0  0  0
   10.0964    6.0128   -0.0735 H   0  0  0  0  0  0  0  0  0  0  0  0
   11.9244    5.3461   -1.5665 H   0  0  0  0  0  0  0  0  0  0  0  0
   11.9720    3.2207   -2.1159 H   0  0  0  0  0  0  0  0  0  0  0  0
   10.6681    1.9771   -3.0428 H   0  0  0  0  0  0  0  0  0  0  0  0
    9.1373    0.7452   -2.8167 H   0  0  0  0  0  0  0  0  0  0  0  0
    9.0471    0.0107    0.0641 H   0  0  0  0  0  0  0  0  0  0  0  0
    7.2570   -1.7198    0.3056 H   0  0  0  0  0  0  0  0  0  0  0  0
    5.3339   -1.0514    1.5774 H   0  0  0  0  0  0  0  0  0  0  0  0
    5.9913    1.5810    2.1689 H   0  0  0  0  0  0  0  0  0  0  0  0
  1  2  1  0  0  0  0
  1 15  1  0  0  0  0
  1 20  1  0  0  0  0
  1 21  1  0  0  0  0
  2  3  2  3  0  0  0
  2 22  1  0  0  0  0
  3  4  1  0  0  0  0
  3 23  1  0  0  0  0
  4  5  1  0  0  0  0
  4 19  2  3  0  0  0
  5  6  2  3  0  0  0
  5 24  1  0  0  0  0
  6  7  1  0  0  0  0
  6 25  1  0  0  0  0
  7  8  2  3  0  0  0
  7 26  1  0  0  0  0
  8  9  1  0  0  0  0
  8 27  1  0  0  0  0
  9 10  2  3  0  0  0
  9 28  1  0  0  0  0
 10 11  1  0  0  0  0
 10 29  1  0  0  0  0
 11 12  2  3  0  0  0
 11 30  1  0  0  0  0
 12 13  1  0  0  0  0
 12 31  1  0  0  0  0
 13 14  2  3  0  0  0
 13 32  1  0  0  0  0
 14 15  1  0  0  0  0
 14 33  1  0  0  0  0
 15 16  2  3  0  0  0
 16 17  1  0  0  0  0
 16 34  1  0  0  0  0
 17 18  2  3  0  0  0
 17 35  1  0  0  0  0
 18 19  1  0  0  0  0
 18 36  1  0  0  0  0
 19 37  1  0  0  0  0
M  END
$$$$
