
 OpenBabel04232217013D

211210  0  0  0  0  0  0  0  0999 V2000
    8.6193   29.1454  -33.7687 O   0  0  0  0  0  0  0  0  0  0  0  0
    8.1581   30.0445  -32.7773 C   0  0  0  0  0  0  0  0  0  0  0  0
    8.6875   29.5918  -31.4313 C   0  0  0  0  0  0  0  0  0  0  0  0
    8.2103   30.5327  -30.3438 C   0  0  0  0  0  0  0  0  0  0  0  0
    8.7403   30.0782  -29.0015 C   0  0  0  0  0  0  0  0  0  0  0  0
    8.2643   31.0152  -27.9219 C   0  0  0  0  0  0  0  0  0  0  0  0
    8.7903   30.5183  -26.7165 O   0  0  0  0  0  0  0  0  0  0  0  0
    8.3099   31.4383  -25.7141 O   0  0  0  0  0  0  0  0  0  0  0  0
    8.8046   31.0332  -24.4298 O   0  0  0  0  0  0  0  0  0  0  0  0
   10.2479   31.0301  -24.4651 O   0  0  0  0  0  0  0  0  0  0  0  0
   10.6189   30.6041  -23.1785 C   0  0  0  0  0  0  0  0  0  0  0  0
   12.1231   30.5969  -23.1704 C   0  0  0  0  0  0  0  0  0  0  0  0
   12.6178   30.1610  -21.8148 C   0  0  0  0  0  0  0  0  0  0  0  0
   14.1307   30.1582  -21.8115 C   0  0  0  0  0  0  0  0  0  0  0  0
   14.6271   29.7206  -20.4506 C   0  0  0  0  0  0  0  0  0  0  0  0
   16.1416   29.7136  -20.4405 C   0  0  0  0  0  0  0  0  0  0  0  0
   16.6391   29.2774  -19.0775 C   0  0  0  0  0  0  0  0  0  0  0  0
   18.1549   29.2716  -19.0648 C   0  0  0  0  0  0  0  0  0  0  0  0
   18.6547   28.8335  -17.7021 C   0  0  0  0  0  0  0  0  0  0  0  0
   20.1707   28.8296  -17.6886 C   0  0  0  0  0  0  0  0  0  0  0  0
   20.6718   28.3935  -16.3259 C   0  0  0  0  0  0  0  0  0  0  0  0
   22.1880   28.3874  -16.3122 C   0  0  0  0  0  0  0  0  0  0  0  0
   22.6885   27.9492  -14.9495 C   0  0  0  0  0  0  0  0  0  0  0  0
   24.2048   27.9411  -14.9361 C   0  0  0  0  0  0  0  0  0  0  0  0
   24.7061   27.5030  -13.5737 C   0  0  0  0  0  0  0  0  0  0  0  0
   26.2225   27.4929  -13.5612 C   0  0  0  0  0  0  0  0  0  0  0  0
   26.7239   27.0549  -12.1984 C   0  0  0  0  0  0  0  0  0  0  0  0
   28.2409   27.0451  -12.1869 C   0  0  0  0  0  0  0  0  0  0  0  0
   28.7430   26.6067  -10.8234 C   0  0  0  0  0  0  0  0  0  0  0  0
   30.2617   26.5978  -10.8142 C   0  0  0  0  0  0  0  0  0  0  0  0
   30.7651   26.1591   -9.4498 C   0  0  0  0  0  0  0  0  0  0  0  0
   32.2849   26.1492   -9.4377 C   0  0  0  0  0  0  0  0  0  0  0  0
   32.7864   25.7105   -8.0734 C   0  0  0  0  0  0  0  0  0  0  0  0
   34.3055   25.6986   -8.0483 C   0  0  0  0  0  0  0  0  0  0  0  0
   34.7888   25.2586   -6.6817 C   0  0  0  0  0  0  0  0  0  0  0  0
   36.2063   25.2445   -6.6758 O   0  0  0  0  0  0  0  0  0  0  0  0
   36.6818   24.8419   -5.3983 C   0  0  0  0  0  0  0  0  0  0  0  0
   38.1978   24.8365   -5.3965 C   0  0  0  0  0  0  0  0  0  0  0  0
   38.6989   26.2363   -5.7037 C   0  0  0  0  0  0  0  0  0  0  0  0
   40.1189   26.2343   -5.7026 O   0  0  0  0  0  0  0  0  0  0  0  0
   40.5970   27.5433   -5.9885 C   0  0  0  0  0  0  0  0  0  0  0  0
   42.1164   27.5433   -5.9912 C   0  0  0  0  0  0  0  0  0  0  0  0
   42.6220   28.9423   -6.2983 C   0  0  0  0  0  0  0  0  0  0  0  0
   42.1527   29.8479   -5.3055 O   0  0  0  0  0  0  0  0  0  0  0  0
   42.6146   31.1557   -5.5914 C   0  0  0  0  0  0  0  0  0  0  0  0
   42.1089   32.1229   -4.5301 C   0  0  0  0  0  0  0  0  0  0  0  0
   42.6093   33.5291   -4.8269 C   0  0  0  0  0  0  0  0  0  0  0  0
   42.1325   33.9345   -6.1073 O   0  0  0  0  0  0  0  0  0  0  0  0
   42.6300   35.2734   -6.3443 N   0  0  0  0  0  0  0  0  0  0  0  0
   42.1196   35.6521   -7.6560 C   0  0  0  0  0  0  0  0  0  0  0  0
   42.6225   37.0538   -7.9476 C   0  0  0  0  0  0  0  0  0  0  0  0
   42.1487   37.4516   -9.2265 O   0  0  0  0  0  0  0  0  0  0  0  0
   42.6473   38.7940   -9.4522 N   0  0  0  0  0  0  0  0  0  0  0  0
   42.1383   39.1738  -10.7634 C   0  0  0  0  0  0  0  0  0  0  0  0
   42.6374   40.5801  -11.0645 C   0  0  0  0  0  0  0  0  0  0  0  0
   42.1455   41.0436  -12.4264 C   0  0  0  0  0  0  0  0  0  0  0  0
   42.6510   42.4488  -12.7146 C   0  0  0  0  0  0  0  0  0  0  0  0
   42.1593   42.9146  -14.0742 C   0  0  0  0  0  0  0  0  0  0  0  0
   42.6659   44.3181  -14.3586 C   0  0  0  0  0  0  0  0  0  0  0  0
   42.1728   44.7848  -15.7171 C   0  0  0  0  0  0  0  0  0  0  0  0
   42.6797   46.1889  -16.0014 C   0  0  0  0  0  0  0  0  0  0  0  0
   42.1854   46.6532  -17.3596 C   0  0  0  0  0  0  0  0  0  0  0  0
   42.6864   48.0571  -17.6551 C   0  0  0  0  0  0  0  0  0  0  0  0
   42.1828   48.5010  -19.0128 C   0  0  0  0  0  0  0  0  0  0  0  0
   42.6619   49.8172  -19.2714 O   0  0  0  0  0  0  0  0  0  0  0  0
   42.1969   50.2525  -20.5422 C   0  0  0  0  0  0  0  0  0  0  0  0
   42.7140   51.6530  -20.8162 C   0  0  0  0  0  0  0  0  0  0  0  0
   42.2151   52.1039  -22.1729 C   0  0  0  0  0  0  0  0  0  0  0  0
   40.7919   52.1046  -22.1785 O   0  0  0  0  0  0  0  0  0  0  0  0
   40.3135   52.5256  -23.4473 C   0  0  0  0  0  0  0  0  0  0  0  0
   38.7927   52.5247  -23.4481 C   0  0  0  0  0  0  0  0  0  0  0  0
   38.2889   52.9790  -24.8041 C   0  0  0  0  0  0  0  0  0  0  0  0
   38.7662   52.0893  -25.8095 O   0  0  0  0  0  0  0  0  0  0  0  0
   38.3038   52.5116  -27.0827 C   0  0  0  0  0  0  0  0  0  0  0  0
   38.8167   51.5585  -28.1509 C   0  0  0  0  0  0  0  0  0  0  0  0
   38.3293   52.0164  -29.5093 C   0  0  0  0  0  0  0  0  0  0  0  0
   38.8198   53.3182  -29.7801 O   0  0  0  0  0  0  0  0  0  0  0  0
   38.3261   53.7815  -31.0319 C   0  0  0  0  0  0  0  0  0  0  0  0
   36.9040   53.8174  -31.0907 O   0  0  0  0  0  0  0  0  0  0  0  0
   36.3736   54.6737  -30.0930 C   0  0  0  0  0  0  0  0  0  0  0  0
   34.9659   54.6736  -30.1274 O   0  0  0  0  0  0  0  0  0  0  0  0
    8.2674   29.4571  -34.6180 H   0  0  0  0  0  0  0  0  0  0  0  0
    7.0639   30.0464  -32.7795 H   0  0  0  0  0  0  0  0  0  0  0  0
    8.5176   31.0505  -33.0135 H   0  0  0  0  0  0  0  0  0  0  0  0
    9.7843   29.5551  -31.4540 H   0  0  0  0  0  0  0  0  0  0  0  0
    8.3561   28.5659  -31.2249 H   0  0  0  0  0  0  0  0  0  0  0  0
    7.1148   30.5565  -30.3166 H   0  0  0  0  0  0  0  0  0  0  0  0
    8.5541   31.5534  -30.5475 H   0  0  0  0  0  0  0  0  0  0  0  0
    9.8373   30.0471  -29.0007 H   0  0  0  0  0  0  0  0  0  0  0  0
    8.4089   29.0577  -28.7718 H   0  0  0  0  0  0  0  0  0  0  0  0
    7.1702   31.0269  -27.8602 H   0  0  0  0  0  0  0  0  0  0  0  0
    8.6253   32.0362  -28.0930 H   0  0  0  0  0  0  0  0  0  0  0  0
   10.2168   29.6030  -22.9850 H   0  0  0  0  0  0  0  0  0  0  0  0
   10.2227   31.3037  -22.4341 H   0  0  0  0  0  0  0  0  0  0  0  0
   12.4983   31.5971  -23.4233 H   0  0  0  0  0  0  0  0  0  0  0  0
   12.4939   29.9286  -23.9584 H   0  0  0  0  0  0  0  0  0  0  0  0
   12.2370   29.1589  -21.5821 H   0  0  0  0  0  0  0  0  0  0  0  0
   12.2390   30.8411  -21.0419 H   0  0  0  0  0  0  0  0  0  0  0  0
   14.5077   31.1612  -22.0473 H   0  0  0  0  0  0  0  0  0  0  0  0
   14.5057   29.4794  -22.5875 H   0  0  0  0  0  0  0  0  0  0  0  0
   14.2443   28.7194  -20.2173 H   0  0  0  0  0  0  0  0  0  0  0  0
   14.2485   30.4014  -19.6781 H   0  0  0  0  0  0  0  0  0  0  0  0
   16.5215   30.7151  -20.6770 H   0  0  0  0  0  0  0  0  0  0  0  0
   16.5173   29.0324  -21.2139 H   0  0  0  0  0  0  0  0  0  0  0  0
   16.2581   28.2758  -18.8431 H   0  0  0  0  0  0  0  0  0  0  0  0
   16.2602   29.9582  -18.3054 H   0  0  0  0  0  0  0  0  0  0  0  0
   18.5346   30.2738  -19.2987 H   0  0  0  0  0  0  0  0  0  0  0  0
   18.5328   28.5922  -19.8387 H   0  0  0  0  0  0  0  0  0  0  0  0
   18.2754   27.8307  -17.4691 H   0  0  0  0  0  0  0  0  0  0  0  0
   18.2750   29.5122  -16.9283 H   0  0  0  0  0  0  0  0  0  0  0  0
   20.5497   29.8320  -17.9236 H   0  0  0  0  0  0  0  0  0  0  0  0
   20.5500   28.1501  -18.4621 H   0  0  0  0  0  0  0  0  0  0  0  0
   20.2914   27.3916  -16.0905 H   0  0  0  0  0  0  0  0  0  0  0  0
   20.2933   29.0739  -15.5528 H   0  0  0  0  0  0  0  0  0  0  0  0
   22.5684   29.3897  -16.5463 H   0  0  0  0  0  0  0  0  0  0  0  0
   22.5664   27.7079  -17.0863 H   0  0  0  0  0  0  0  0  0  0  0  0
   22.3067   26.9476  -14.7150 H   0  0  0  0  0  0  0  0  0  0  0  0
   22.3109   28.6295  -14.1758 H   0  0  0  0  0  0  0  0  0  0  0  0
   24.5863   28.9427  -15.1708 H   0  0  0  0  0  0  0  0  0  0  0  0
   24.5820   27.2609  -15.7100 H   0  0  0  0  0  0  0  0  0  0  0  0
   24.3235   26.5019  -13.3384 H   0  0  0  0  0  0  0  0  0  0  0  0
   24.3301   28.1840  -12.8000 H   0  0  0  0  0  0  0  0  0  0  0  0
   26.6052   28.4940  -13.7966 H   0  0  0  0  0  0  0  0  0  0  0  0
   26.5985   26.8119  -14.3349 H   0  0  0  0  0  0  0  0  0  0  0  0
   26.3413   26.0539  -11.9634 H   0  0  0  0  0  0  0  0  0  0  0  0
   26.3480   27.7361  -11.4251 H   0  0  0  0  0  0  0  0  0  0  0  0
   28.6228   28.0459  -12.4217 H   0  0  0  0  0  0  0  0  0  0  0  0
   28.6161   26.3640  -12.9601 H   0  0  0  0  0  0  0  0  0  0  0  0
   28.3609   25.6063  -10.5888 H   0  0  0  0  0  0  0  0  0  0  0  0
   28.3675   27.2877  -10.0506 H   0  0  0  0  0  0  0  0  0  0  0  0
   30.6419   27.5984  -11.0487 H   0  0  0  0  0  0  0  0  0  0  0  0
   30.6352   25.9166  -11.5870 H   0  0  0  0  0  0  0  0  0  0  0  0
   30.3827   25.1595   -9.2160 H   0  0  0  0  0  0  0  0  0  0  0  0
   30.3894   26.8399   -8.6782 H   0  0  0  0  0  0  0  0  0  0  0  0
   32.6660   27.1497   -9.6715 H   0  0  0  0  0  0  0  0  0  0  0  0
   32.6594   25.4677  -10.2099 H   0  0  0  0  0  0  0  0  0  0  0  0
   32.4017   24.7105   -7.8405 H   0  0  0  0  0  0  0  0  0  0  0  0
   32.4057   26.3902   -7.3018 H   0  0  0  0  0  0  0  0  0  0  0  0
   34.7042   26.6933   -8.2818 H   0  0  0  0  0  0  0  0  0  0  0  0
   34.6998   25.0234   -8.8174 H   0  0  0  0  0  0  0  0  0  0  0  0
   34.4147   24.2524   -6.4576 H   0  0  0  0  0  0  0  0  0  0  0  0
   34.4235   25.9516   -5.9135 H   0  0  0  0  0  0  0  0  0  0  0  0
   36.3093   23.8333   -5.1757 H   0  0  0  0  0  0  0  0  0  0  0  0
   36.3099   25.5319   -4.6332 H   0  0  0  0  0  0  0  0  0  0  0  0
   38.5835   24.1312   -6.1436 H   0  0  0  0  0  0  0  0  0  0  0  0
   38.5808   24.4980   -4.4275 H   0  0  0  0  0  0  0  0  0  0  0  0
   38.3323   26.9381   -4.9439 H   0  0  0  0  0  0  0  0  0  0  0  0
   38.3386   26.5635   -6.6855 H   0  0  0  0  0  0  0  0  0  0  0  0
   40.2189   28.2385   -5.2301 H   0  0  0  0  0  0  0  0  0  0  0  0
   40.2245   27.8619   -6.9709 H   0  0  0  0  0  0  0  0  0  0  0  0
   42.4946   26.8272   -6.7291 H   0  0  0  0  0  0  0  0  0  0  0  0
   42.4879   27.2045   -5.0157 H   0  0  0  0  0  0  0  0  0  0  0  0
   42.2635   29.2579   -7.2855 H   0  0  0  0  0  0  0  0  0  0  0  0
   43.7188   28.9443   -6.3032 H   0  0  0  0  0  0  0  0  0  0  0  0
   42.2542   31.4597   -6.5810 H   0  0  0  0  0  0  0  0  0  0  0  0
   43.7116   31.1577   -5.6025 H   0  0  0  0  0  0  0  0  0  0  0  0
   42.4405   31.7998   -3.5375 H   0  0  0  0  0  0  0  0  0  0  0  0
   41.0117   32.1026   -4.5088 H   0  0  0  0  0  0  0  0  0  0  0  0
   43.7061   33.5334   -4.8323 H   0  0  0  0  0  0  0  0  0  0  0  0
   42.2533   34.2204   -4.0550 H   0  0  0  0  0  0  0  0  0  0  0  0
   43.6358   35.1191   -6.4395 H   0  0  0  0  0  0  0  0  0  0  0  0
   41.0243   35.6306   -7.6772 H   0  0  0  0  0  0  0  0  0  0  0  0
   42.4723   34.9599   -8.4309 H   0  0  0  0  0  0  0  0  0  0  0  0
   43.7207   37.0639   -7.9580 H   0  0  0  0  0  0  0  0  0  0  0  0
   42.2682   37.7541   -7.1800 H   0  0  0  0  0  0  0  0  0  0  0  0
   43.6522   38.6313   -9.5417 H   0  0  0  0  0  0  0  0  0  0  0  0
   41.0431   39.1542  -10.7692 H   0  0  0  0  0  0  0  0  0  0  0  0
   42.4978   38.4771  -11.5309 H   0  0  0  0  0  0  0  0  0  0  0  0
   43.7350   40.6042  -11.0451 H   0  0  0  0  0  0  0  0  0  0  0  0
   42.2868   41.2763  -10.2913 H   0  0  0  0  0  0  0  0  0  0  0  0
   41.0492   41.0312  -12.4515 H   0  0  0  0  0  0  0  0  0  0  0  0
   42.4974   40.3559  -13.2049 H   0  0  0  0  0  0  0  0  0  0  0  0
   43.7476   42.4641  -12.6904 H   0  0  0  0  0  0  0  0  0  0  0  0
   42.3006   43.1386  -11.9368 H   0  0  0  0  0  0  0  0  0  0  0  0
   41.0627   42.9023  -14.0985 H   0  0  0  0  0  0  0  0  0  0  0  0
   42.5089   42.2268  -14.8539 H   0  0  0  0  0  0  0  0  0  0  0  0
   43.7625   44.3312  -14.3356 H   0  0  0  0  0  0  0  0  0  0  0  0
   42.3168   45.0061  -13.5789 H   0  0  0  0  0  0  0  0  0  0  0  0
   41.0762   44.7719  -15.7403 H   0  0  0  0  0  0  0  0  0  0  0  0
   42.5219   44.0969  -16.4969 H   0  0  0  0  0  0  0  0  0  0  0  0
   43.7759   46.2012  -15.9792 H   0  0  0  0  0  0  0  0  0  0  0  0
   42.3302   46.8766  -15.2222 H   0  0  0  0  0  0  0  0  0  0  0  0
   41.0886   46.6369  -17.3808 H   0  0  0  0  0  0  0  0  0  0  0  0
   42.5337   45.9620  -18.1373 H   0  0  0  0  0  0  0  0  0  0  0  0
   43.7826   48.0882  -17.6354 H   0  0  0  0  0  0  0  0  0  0  0  0
   42.3466   48.7588  -16.8837 H   0  0  0  0  0  0  0  0  0  0  0  0
   41.0872   48.5011  -19.0246 H   0  0  0  0  0  0  0  0  0  0  0  0
   42.5479   47.8192  -19.7893 H   0  0  0  0  0  0  0  0  0  0  0  0
   41.1025   50.2390  -20.5462 H   0  0  0  0  0  0  0  0  0  0  0  0
   42.5617   49.5632  -21.3144 H   0  0  0  0  0  0  0  0  0  0  0  0
   43.8079   51.6708  -20.7807 H   0  0  0  0  0  0  0  0  0  0  0  0
   42.3685   52.3356  -20.0293 H   0  0  0  0  0  0  0  0  0  0  0  0
   42.5843   51.4267  -22.9527 H   0  0  0  0  0  0  0  0  0  0  0  0
   42.5809   53.1173  -22.3846 H   0  0  0  0  0  0  0  0  0  0  0  0
   40.6932   51.8451  -24.2180 H   0  0  0  0  0  0  0  0  0  0  0  0
   40.6836   53.5356  -23.6568 H   0  0  0  0  0  0  0  0  0  0  0  0
   38.4121   53.1802  -22.6575 H   0  0  0  0  0  0  0  0  0  0  0  0
   38.4229   51.5176  -23.2173 H   0  0  0  0  0  0  0  0  0  0  0  0
   38.6467   53.9948  -25.0147 H   0  0  0  0  0  0  0  0  0  0  0  0
   37.1924   52.9825  -24.8118 H   0  0  0  0  0  0  0  0  0  0  0  0
   38.6620   53.5292  -27.2776 H   0  0  0  0  0  0  0  0  0  0  0  0
   37.2077   52.5190  -27.0859 H   0  0  0  0  0  0  0  0  0  0  0  0
   38.4817   50.5379  -27.9426 H   0  0  0  0  0  0  0  0  0  0  0  0
   39.9125   51.5368  -28.1336 H   0  0  0  0  0  0  0  0  0  0  0  0
   37.2242   52.0040  -29.5173 H   0  0  0  0  0  0  0  0  0  0  0  0
   38.6789   51.3313  -30.2894 H   0  0  0  0  0  0  0  0  0  0  0  0
   38.7003   53.1166  -31.8191 H   0  0  0  0  0  0  0  0  0  0  0  0
   38.7165   54.7871  -31.2221 H   0  0  0  0  0  0  0  0  0  0  0  0
   36.7514   55.6962  -30.2284 H   0  0  0  0  0  0  0  0  0  0  0  0
   36.6760   54.3302  -29.0894 H   0  0  0  0  0  0  0  0  0  0  0  0
   34.7210   55.1075  -30.9652 H   0  0  0  0  0  0  0  0  0  0  0  0
  1  2  1  0  0  0  0
  1 82  1  0  0  0  0
  2  3  1  0  0  0  0
  2 83  1  0  0  0  0
  2 84  1  0  0  0  0
  3  4  1  0  0  0  0
  3 85  1  0  0  0  0
  3 86  1  0  0  0  0
  4  5  1  0  0  0  0
  4 87  1  0  0  0  0
  4 88  1  0  0  0  0
  5  6  1  0  0  0  0
  5 89  1  0  0  0  0
  5 90  1  0  0  0  0
  6  7  1  0  0  0  0
  6 91  1  0  0  0  0
  6 92  1  0  0  0  0
  7  8  1  0  0  0  0
  8  9  1  0  0  0  0
  9 10  1  0  0  0  0
 10 11  1  0  0  0  0
 11 12  1  0  0  0  0
 11 93  1  0  0  0  0
 11 94  1  0  0  0  0
 12 13  1  0  0  0  0
 12 95  1  0  0  0  0
 12 96  1  0  0  0  0
 13 14  1  0  0  0  0
 13 97  1  0  0  0  0
 13 98  1  0  0  0  0
 14 15  1  0  0  0  0
 14 99  1  0  0  0  0
 14100  1  0  0  0  0
 15 16  1  0  0  0  0
 15101  1  0  0  0  0
 15102  1  0  0  0  0
 16 17  1  0  0  0  0
 16103  1  0  0  0  0
 16104  1  0  0  0  0
 17 18  1  0  0  0  0
 17105  1  0  0  0  0
 17106  1  0  0  0  0
 18 19  1  0  0  0  0
 18107  1  0  0  0  0
 18108  1  0  0  0  0
 19 20  1  0  0  0  0
 19109  1  0  0  0  0
 19110  1  0  0  0  0
 20 21  1  0  0  0  0
 20111  1  0  0  0  0
 20112  1  0  0  0  0
 21 22  1  0  0  0  0
 21113  1  0  0  0  0
 21114  1  0  0  0  0
 22 23  1  0  0  0  0
 22115  1  0  0  0  0
 22116  1  0  0  0  0
 23 24  1  0  0  0  0
 23117  1  0  0  0  0
 23118  1  0  0  0  0
 24 25  1  0  0  0  0
 24119  1  0  0  0  0
 24120  1  0  0  0  0
 25 26  1  0  0  0  0
 25121  1  0  0  0  0
 25122  1  0  0  0  0
 26 27  1  0  0  0  0
 26123  1  0  0  0  0
 26124  1  0  0  0  0
 27 28  1  0  0  0  0
 27125  1  0  0  0  0
 27126  1  0  0  0  0
 28 29  1  0  0  0  0
 28127  1  0  0  0  0
 28128  1  0  0  0  0
 29 30  1  0  0  0  0
 29129  1  0  0  0  0
 29130  1  0  0  0  0
 30 31  1  0  0  0  0
 30131  1  0  0  0  0
 30132  1  0  0  0  0
 31 32  1  0  0  0  0
 31133  1  0  0  0  0
 31134  1  0  0  0  0
 32 33  1  0  0  0  0
 32135  1  0  0  0  0
 32136  1  0  0  0  0
 33 34  1  0  0  0  0
 33137  1  0  0  0  0
 33138  1  0  0  0  0
 34 35  1  0  0  0  0
 34139  1  0  0  0  0
 34140  1  0  0  0  0
 35 36  1  0  0  0  0
 35141  1  0  0  0  0
 35142  1  0  0  0  0
 36 37  1  0  0  0  0
 37 38  1  0  0  0  0
 37143  1  0  0  0  0
 37144  1  0  0  0  0
 38 39  1  0  0  0  0
 38145  1  0  0  0  0
 38146  1  0  0  0  0
 39 40  1  0  0  0  0
 39147  1  0  0  0  0
 39148  1  0  0  0  0
 40 41  1  0  0  0  0
 41 42  1  0  0  0  0
 41149  1  0  0  0  0
 41150  1  0  0  0  0
 42 43  1  0  0  0  0
 42151  1  0  0  0  0
 42152  1  0  0  0  0
 43 44  1  0  0  0  0
 43153  1  0  0  0  0
 43154  1  0  0  0  0
 44 45  1  0  0  0  0
 45 46  1  0  0  0  0
 45155  1  0  0  0  0
 45156  1  0  0  0  0
 46 47  1  0  0  0  0
 46157  1  0  0  0  0
 46158  1  0  0  0  0
 47 48  1  0  0  0  0
 47159  1  0  0  0  0
 47160  1  0  0  0  0
 48 49  1  0  0  0  0
 49 50  1  0  0  0  0
 49161  1  0  0  0  0
 50 51  1  0  0  0  0
 50162  1  0  0  0  0
 50163  1  0  0  0  0
 51 52  1  0  0  0  0
 51164  1  0  0  0  0
 51165  1  0  0  0  0
 52 53  1  0  0  0  0
 53 54  1  0  0  0  0
 53166  1  0  0  0  0
 54 55  1  0  0  0  0
 54167  1  0  0  0  0
 54168  1  0  0  0  0
 55 56  1  0  0  0  0
 55169  1  0  0  0  0
 55170  1  0  0  0  0
 56 57  1  0  0  0  0
 56171  1  0  0  0  0
 56172  1  0  0  0  0
 57 58  1  0  0  0  0
 57173  1  0  0  0  0
 57174  1  0  0  0  0
 58 59  1  0  0  0  0
 58175  1  0  0  0  0
 58176  1  0  0  0  0
 59 60  1  0  0  0  0
 59177  1  0  0  0  0
 59178  1  0  0  0  0
 60 61  1  0  0  0  0
 60179  1  0  0  0  0
 60180  1  0  0  0  0
 61 62  1  0  0  0  0
 61181  1  0  0  0  0
 61182  1  0  0  0  0
 62 63  1  0  0  0  0
 62183  1  0  0  0  0
 62184  1  0  0  0  0
 63 64  1  0  0  0  0
 63185  1  0  0  0  0
 63186  1  0  0  0  0
 64 65  1  0  0  0  0
 64187  1  0  0  0  0
 64188  1  0  0  0  0
 65 66  1  0  0  0  0
 66 67  1  0  0  0  0
 66189  1  0  0  0  0
 66190  1  0  0  0  0
 67 68  1  0  0  0  0
 67191  1  0  0  0  0
 67192  1  0  0  0  0
 68 69  1  0  0  0  0
 68193  1  0  0  0  0
 68194  1  0  0  0  0
 69 70  1  0  0  0  0
 70 71  1  0  0  0  0
 70195  1  0  0  0  0
 70196  1  0  0  0  0
 71 72  1  0  0  0  0
 71197  1  0  0  0  0
 71198  1  0  0  0  0
 72 73  1  0  0  0  0
 72199  1  0  0  0  0
 72200  1  0  0  0  0
 73 74  1  0  0  0  0
 74 75  1  0  0  0  0
 74201  1  0  0  0  0
 74202  1  0  0  0  0
 75 76  1  0  0  0  0
 75203  1  0  0  0  0
 75204  1  0  0  0  0
 76 77  1  0  0  0  0
 76205  1  0  0  0  0
 76206  1  0  0  0  0
 77 78  1  0  0  0  0
 78 79  1  0  0  0  0
 78207  1  0  0  0  0
 78208  1  0  0  0  0
 79 80  1  0  0  0  0
 80 81  1  0  0  0  0
 80209  1  0  0  0  0
 80210  1  0  0  0  0
 81211  1  0  0  0  0
M  END
$$$$
