
 OpenBabel04232216513D

 55 56  0  0  0  0  0  0  0  0999 V2000
    5.0108    1.5621    0.3494 C   0  0  0  0  0  0  0  0  0  0  0  0
    5.0623    0.8054    1.7073 C   0  0  0  0  0  0  0  0  0  0  0  0
    6.4558    0.1070    1.9222 C   0  0  0  0  0  0  0  0  0  0  0  0
    6.9853   -0.7081    3.1994 C   0  0  0  0  0  0  0  0  0  0  0  0
    6.2908   -2.0472    3.3229 C   0  0  0  0  0  0  0  0  0  0  0  0
    4.9457   -2.1501    4.0164 C   0  0  0  0  0  0  0  0  0  0  0  0
    4.4093   -3.5966    4.2968 C   0  0  0  0  0  0  0  0  0  0  0  0
    5.2263   -4.4124    5.3000 C   0  0  0  0  0  0  0  0  0  0  0  0
    6.6935   -3.0459    2.5042 C   0  0  0  0  0  0  0  0  0  0  0  0
    7.9744   -3.5107    2.6444 N   0  0  0  0  0  0  0  0  0  0  0  0
    8.8935   -3.6142    1.6240 C   0  0  0  0  0  0  0  0  0  0  0  0
    8.6129   -3.7219    0.4365 O   0  0  0  0  0  0  0  0  0  0  0  0
   10.3417   -3.3821    2.1013 C   0  0  0  0  0  0  0  0  0  0  0  0
   10.5659   -3.8859    3.5141 C   0  0  0  0  0  0  0  0  0  0  0  0
   10.4492   -3.2610    4.7249 C   0  0  0  0  0  0  0  0  0  0  0  0
   10.2920   -1.7742    4.8867 C   0  0  0  0  0  0  0  0  0  0  0  0
   11.8124   -1.2482    4.9375 C   0  0  0  0  0  0  0  0  0  0  0  0
   12.3974   -1.3129    3.5501 C   0  0  0  0  0  0  0  0  0  0  0  0
   13.6611   -1.1150    2.7692 C   0  0  0  0  0  0  0  0  0  0  0  0
   13.2067   -1.1198    1.2602 C   0  0  0  0  0  0  0  0  0  0  0  0
   11.7021   -1.4321    0.8468 C   0  0  0  0  0  0  0  0  0  0  0  0
   10.6153   -2.1081    1.7003 C   0  0  0  0  0  0  0  0  0  0  0  0
    8.9935   -1.4015    4.6369 C   0  0  0  0  0  0  0  0  0  0  0  0
    8.2064   -0.4384    3.8032 C   0  0  0  0  0  0  0  0  0  0  0  0
    4.0096    1.9653    0.1400 H   0  0  0  0  0  0  0  0  0  0  0  0
    5.2701    0.9094   -0.4932 H   0  0  0  0  0  0  0  0  0  0  0  0
    5.7033    2.4116    0.3377 H   0  0  0  0  0  0  0  0  0  0  0  0
    4.2481    0.0694    1.6820 H   0  0  0  0  0  0  0  0  0  0  0  0
    4.8321    1.5241    2.5001 H   0  0  0  0  0  0  0  0  0  0  0  0
    7.2140    0.8559    1.6740 H   0  0  0  0  0  0  0  0  0  0  0  0
    6.4931   -0.6163    1.0927 H   0  0  0  0  0  0  0  0  0  0  0  0
    4.1760   -1.6429    3.4230 H   0  0  0  0  0  0  0  0  0  0  0  0
    4.9782   -1.6398    4.9923 H   0  0  0  0  0  0  0  0  0  0  0  0
    4.3294   -4.1665    3.3623 H   0  0  0  0  0  0  0  0  0  0  0  0
    3.3846   -3.5288    4.6922 H   0  0  0  0  0  0  0  0  0  0  0  0
    6.2384   -4.6133    4.9390 H   0  0  0  0  0  0  0  0  0  0  0  0
    4.7473   -5.3840    5.4770 H   0  0  0  0  0  0  0  0  0  0  0  0
    5.2955   -3.9008    6.2647 H   0  0  0  0  0  0  0  0  0  0  0  0
    6.3730   -2.9946    1.4637 H   0  0  0  0  0  0  0  0  0  0  0  0
    8.3369   -3.4362    3.5807 H   0  0  0  0  0  0  0  0  0  0  0  0
   10.7645   -4.9502    3.5519 H   0  0  0  0  0  0  0  0  0  0  0  0
   10.6472   -3.7947    5.6575 H   0  0  0  0  0  0  0  0  0  0  0  0
   12.3943   -1.9295    5.5849 H   0  0  0  0  0  0  0  0  0  0  0  0
   11.9081   -0.2595    5.3869 H   0  0  0  0  0  0  0  0  0  0  0  0
   11.7283   -0.6023    3.0777 H   0  0  0  0  0  0  0  0  0  0  0  0
   12.3010   -2.3675    3.3066 H   0  0  0  0  0  0  0  0  0  0  0  0
   14.3749   -1.9432    2.9041 H   0  0  0  0  0  0  0  0  0  0  0  0
   14.1947   -0.1946    3.0198 H   0  0  0  0  0  0  0  0  0  0  0  0
   13.4215   -0.1070    0.8821 H   0  0  0  0  0  0  0  0  0  0  0  0
   13.8655   -1.7713    0.6729 H   0  0  0  0  0  0  0  0  0  0  0  0
   11.6833   -1.8656   -0.1582 H   0  0  0  0  0  0  0  0  0  0  0  0
   11.2819   -0.4207    0.6861 H   0  0  0  0  0  0  0  0  0  0  0  0
    9.9121   -1.3494    2.0484 H   0  0  0  0  0  0  0  0  0  0  0  0
    8.2752   -2.1415    5.0000 H   0  0  0  0  0  0  0  0  0  0  0  0
    8.7499    0.4567    3.4716 H   0  0  0  0  0  0  0  0  0  0  0  0
  1  2  1  0  0  0  0
  1 25  1  0  0  0  0
  1 26  1  0  0  0  0
  1 27  1  0  0  0  0
  2  3  1  0  0  0  0
  2 28  1  0  0  0  0
  2 29  1  0  0  0  0
  3  4  1  0  0  0  0
  3 30  1  0  0  0  0
  3 31  1  0  0  0  0
  4  5  1  0  0  0  0
  4 24  2  3  0  0  0
  5  6  1  0  0  0  0
  5  9  2  3  0  0  0
  6  7  1  0  0  0  0
  6 32  1  0  0  0  0
  6 33  1  0  0  0  0
  7  8  1  0  0  0  0
  7 34  1  0  0  0  0
  7 35  1  0  0  0  0
  8 36  1  0  0  0  0
  8 37  1  0  0  0  0
  8 38  1  0  0  0  0
  9 10  1  0  0  0  0
  9 39  1  0  0  0  0
 10 11  1  0  0  0  0
 10 40  1  0  0  0  0
 11 12  2  0  0  0  0
 11 13  1  0  0  0  0
 13 14  1  0  0  0  0
 13 22  2  3  0  0  0
 14 15  2  3  0  0  0
 14 41  1  0  0  0  0
 15 16  1  0  0  0  0
 15 42  1  0  0  0  0
 16 17  1  0  0  0  0
 16 23  2  3  0  0  0
 17 18  1  0  0  0  0
 17 43  1  0  0  0  0
 17 44  1  0  0  0  0
 18 19  1  0  0  0  0
 18 45  1  0  0  0  0
 18 46  1  0  0  0  0
 19 20  1  0  0  0  0
 19 47  1  0  0  0  0
 19 48  1  0  0  0  0
 20 21  1  0  0  0  0
 20 49  1  0  0  0  0
 20 50  1  0  0  0  0
 21 22  1  0  0  0  0
 21 51  1  0  0  0  0
 21 52  1  0  0  0  0
 22 53  1  0  0  0  0
 23 24  1  0  0  0  0
 23 54  1  0  0  0  0
 24 55  1  0  0  0  0
M  END
$$$$
