
 OpenBabel04232216513D

 31 31  0  0  0  0  0  0  0  0999 V2000
    2.4793    0.6552    1.4471 C   0  0  0  0  0  0  0  0  0  0  0  0
    2.3061   -0.0322    0.1018 C   0  0  0  0  0  0  0  0  0  0  0  0
    2.9173    0.7481   -1.0713 C   0  0  0  0  0  0  0  0  0  0  0  0
    4.4114    1.0247   -0.9671 C   0  0  0  0  0  0  0  0  0  0  0  0
    4.9807    2.2573   -0.9255 C   0  0  0  0  0  0  0  0  0  0  0  0
    6.4940    2.4247   -0.9124 C   0  0  0  0  0  0  0  0  0  0  0  0
    7.2714    1.1903   -1.3552 C   0  0  0  0  0  0  0  0  0  0  0  0
    6.7308   -0.0438   -0.6593 C   0  0  0  0  0  0  0  0  0  0  0  0
    5.2557   -0.2420   -0.9940 C   0  0  0  0  0  0  0  0  0  0  0  0
    4.2320    3.5798   -0.9624 C   0  0  0  0  0  0  0  0  0  0  0  0
    4.5160    4.4932    0.2252 C   0  0  0  0  0  0  0  0  0  0  0  0
    1.9620    0.0867    2.2270 H   0  0  0  0  0  0  0  0  0  0  0  0
    2.0589    1.6657    1.4282 H   0  0  0  0  0  0  0  0  0  0  0  0
    3.5340    0.7236    1.7300 H   0  0  0  0  0  0  0  0  0  0  0  0
    1.2338   -0.1608   -0.0913 H   0  0  0  0  0  0  0  0  0  0  0  0
    2.7239   -1.0435    0.1544 H   0  0  0  0  0  0  0  0  0  0  0  0
    2.3344    1.6623   -1.2020 H   0  0  0  0  0  0  0  0  0  0  0  0
    2.7457    0.1737   -1.9915 H   0  0  0  0  0  0  0  0  0  0  0  0
    6.8029    2.6948    0.1051 H   0  0  0  0  0  0  0  0  0  0  0  0
    6.7823    3.2560   -1.5683 H   0  0  0  0  0  0  0  0  0  0  0  0
    8.3346    1.3182   -1.1241 H   0  0  0  0  0  0  0  0  0  0  0  0
    7.1910    1.0683   -2.4422 H   0  0  0  0  0  0  0  0  0  0  0  0
    6.8524    0.0599    0.4263 H   0  0  0  0  0  0  0  0  0  0  0  0
    7.3004   -0.9303   -0.9602 H   0  0  0  0  0  0  0  0  0  0  0  0
    4.8619   -0.9841   -0.2921 H   0  0  0  0  0  0  0  0  0  0  0  0
    5.1736   -0.6795   -1.9976 H   0  0  0  0  0  0  0  0  0  0  0  0
    3.1502    3.4478   -1.0177 H   0  0  0  0  0  0  0  0  0  0  0  0
    4.5116    4.1045   -1.8850 H   0  0  0  0  0  0  0  0  0  0  0  0
    4.2110    4.0246    1.1663 H   0  0  0  0  0  0  0  0  0  0  0  0
    3.9568    5.4285    0.1158 H   0  0  0  0  0  0  0  0  0  0  0  0
    5.5764    4.7543    0.2957 H   0  0  0  0  0  0  0  0  0  0  0  0
  1  2  1  0  0  0  0
  1 12  1  0  0  0  0
  1 13  1  0  0  0  0
  1 14  1  0  0  0  0
  2  3  1  0  0  0  0
  2 15  1  0  0  0  0
  2 16  1  0  0  0  0
  3  4  1  0  0  0  0
  3 17  1  0  0  0  0
  3 18  1  0  0  0  0
  4  5  2  0  0  0  0
  4  9  1  0  0  0  0
  5  6  1  0  0  0  0
  5 10  1  0  0  0  0
  6  7  1  0  0  0  0
  6 19  1  0  0  0  0
  6 20  1  0  0  0  0
  7  8  1  0  0  0  0
  7 21  1  0  0  0  0
  7 22  1  0  0  0  0
  8  9  1  0  0  0  0
  8 23  1  0  0  0  0
  8 24  1  0  0  0  0
  9 25  1  0  0  0  0
  9 26  1  0  0  0  0
 10 11  1  0  0  0  0
 10 27  1  0  0  0  0
 10 28  1  0  0  0  0
 11 29  1  0  0  0  0
 11 30  1  0  0  0  0
 11 31  1  0  0  0  0
M  END
$$$$
