
 OpenBabel04232216523D

 64 65  0  0  1  0  0  0  0  0999 V2000
    3.9721    2.2898   -2.2866 C   0  0  0  0  0  0  0  0  0  0  0  0
    4.8103    2.1882   -0.9810 C   0  0  0  0  0  0  0  0  0  0  0  0
    6.4230    1.8756   -1.0627 C   0  0  0  0  0  0  0  0  0  0  0  0
    7.5841    2.6813   -0.2146 C   0  0  0  0  0  0  0  0  0  0  0  0
    6.9766    3.0916    0.9965 C   0  0  0  0  0  0  0  0  0  0  0  0
    7.0842    2.4557    2.1546 C   0  0  0  0  0  0  0  0  0  0  0  0
    7.8050    1.1161    2.3259 C   0  0  0  0  0  0  0  0  0  0  0  0
    7.0364    3.3915    3.2661 C   0  0  0  0  0  0  0  0  0  0  0  0
    8.2245    4.0106    3.3665 C   0  0  0  0  0  0  0  0  0  0  0  0
    8.4957    5.4159    3.2082 C   0  0  0  0  0  0  0  0  0  0  0  0
    9.8045    5.6364    3.4165 C   0  0  0  0  0  0  0  0  0  0  0  0
   10.8148    6.6115    2.9292 C   0  0  3  0  0  0  0  0  0  0  0  0
   11.0899    7.3953    4.2042 C   0  0  0  0  0  0  0  0  0  0  0  0
   12.0069    5.7674    2.4032 C   0  0  0  0  0  0  0  0  0  0  0  0
   11.7233    4.4642    2.0326 C   0  0  0  0  0  0  0  0  0  0  0  0
   11.4713    4.0312    0.6059 C   0  0  0  0  0  0  0  0  0  0  0  0
   12.7610    4.1578   -0.0714 N   0  0  0  0  0  0  0  0  0  0  0  0
   14.0462    4.7359    0.4598 C   0  0  0  0  0  0  0  0  0  0  0  0
   14.0281    6.2091    0.9153 C   0  0  0  0  0  0  0  0  0  0  0  0
   13.3862    6.5160    2.2900 C   0  0  3  0  0  0  0  0  0  0  0  0
   14.4360    6.5325    3.5152 C   0  0  0  0  0  0  0  0  0  0  0  0
   15.4700    7.7313    3.4952 C   0  0  0  0  0  0  0  0  0  0  0  0
   16.4759    7.8356    4.6798 C   0  0  0  0  0  0  0  0  0  0  0  0
   17.4727    9.0019    4.5027 C   0  0  0  0  0  0  0  0  0  0  0  0
   18.4223    9.0322    5.5660 O   0  0  0  0  0  0  0  0  0  0  0  0
   10.4065    3.4687   -0.1309 C   0  0  0  0  0  0  0  0  0  0  0  0
    8.9756    2.8654   -0.4895 C   0  0  0  0  0  0  0  0  0  0  0  0
    2.8956    2.1592   -2.0650 H   0  0  0  0  0  0  0  0  0  0  0  0
    4.2158    1.5162   -3.0212 H   0  0  0  0  0  0  0  0  0  0  0  0
    4.0513    3.2738   -2.7598 H   0  0  0  0  0  0  0  0  0  0  0  0
    4.3450    1.3259   -0.4693 H   0  0  0  0  0  0  0  0  0  0  0  0
    4.5625    3.0536   -0.3596 H   0  0  0  0  0  0  0  0  0  0  0  0
    6.6958    1.7268   -2.0966 H   0  0  0  0  0  0  0  0  0  0  0  0
    6.4404    0.8798   -0.5943 H   0  0  0  0  0  0  0  0  0  0  0  0
    6.4812    4.0726    0.9373 H   0  0  0  0  0  0  0  0  0  0  0  0
    7.4021    0.3714    1.6392 H   0  0  0  0  0  0  0  0  0  0  0  0
    7.6976    0.7351    3.3367 H   0  0  0  0  0  0  0  0  0  0  0  0
    8.8727    1.2312    2.1206 H   0  0  0  0  0  0  0  0  0  0  0  0
    6.1016    3.9466    3.4234 H   0  0  0  0  0  0  0  0  0  0  0  0
    9.0782    3.4201    3.0087 H   0  0  0  0  0  0  0  0  0  0  0  0
    7.8464    6.0756    2.6504 H   0  0  0  0  0  0  0  0  0  0  0  0
   10.3071    4.8500    3.9836 H   0  0  0  0  0  0  0  0  0  0  0  0
   10.4722    7.2747    2.1218 H   0  0  0  0  0  0  0  0  0  0  0  0
   11.4330    6.7168    5.0029 H   0  0  0  0  0  0  0  0  0  0  0  0
   10.1642    7.8582    4.5568 H   0  0  0  0  0  0  0  0  0  0  0  0
   11.8326    8.1786    4.0854 H   0  0  0  0  0  0  0  0  0  0  0  0
   12.5528    3.7973    2.3227 H   0  0  0  0  0  0  0  0  0  0  0  0
   12.9786    3.2380   -0.4636 H   0  0  0  0  0  0  0  0  0  0  0  0
   14.7614    4.6932   -0.3738 H   0  0  0  0  0  0  0  0  0  0  0  0
   14.4862    4.1032    1.2432 H   0  0  0  0  0  0  0  0  0  0  0  0
   13.5027    6.8012    0.1510 H   0  0  0  0  0  0  0  0  0  0  0  0
   15.0547    6.5847    0.9149 H   0  0  0  0  0  0  0  0  0  0  0  0
   13.1225    7.5841    2.2139 H   0  0  0  0  0  0  0  0  0  0  0  0
   14.9972    5.5917    3.5432 H   0  0  0  0  0  0  0  0  0  0  0  0
   13.8867    6.6054    4.4618 H   0  0  0  0  0  0  0  0  0  0  0  0
   14.9121    8.6755    3.4665 H   0  0  0  0  0  0  0  0  0  0  0  0
   16.0624    7.6816    2.5760 H   0  0  0  0  0  0  0  0  0  0  0  0
   17.0513    6.9081    4.7871 H   0  0  0  0  0  0  0  0  0  0  0  0
   15.9496    7.9768    5.6321 H   0  0  0  0  0  0  0  0  0  0  0  0
   16.9667    9.9730    4.4717 H   0  0  0  0  0  0  0  0  0  0  0  0
   18.0420    8.8902    3.5744 H   0  0  0  0  0  0  0  0  0  0  0  0
   17.9831    9.3917    6.3558 H   0  0  0  0  0  0  0  0  0  0  0  0
   10.8427    3.3176   -1.1339 H   0  0  0  0  0  0  0  0  0  0  0  0
    9.1466    2.3643   -1.4676 H   0  0  0  0  0  0  0  0  0  0  0  0
  1  2  1  0  0  0  0
  1 28  1  0  0  0  0
  1 29  1  0  0  0  0
  1 30  1  0  0  0  0
  2  3  1  0  0  0  0
  2 31  1  0  0  0  0
  2 32  1  0  0  0  0
  3  4  1  0  0  0  0
  3 33  1  0  0  0  0
  3 34  1  0  0  0  0
  4  5  1  0  0  0  0
  4 27  2  3  0  0  0
  5  6  2  3  0  0  0
  5 35  1  0  0  0  0
  6  7  1  0  0  0  0
  6  8  1  0  0  0  0
  7 36  1  0  0  0  0
  7 37  1  0  0  0  0
  7 38  1  0  0  0  0
  8  9  2  3  0  0  0
  8 39  1  0  0  0  0
  9 10  1  0  0  0  0
  9 40  1  0  0  0  0
 10 11  2  3  0  0  0
 10 41  1  0  0  0  0
 11 12  1  0  0  0  0
 11 42  1  0  0  0  0
 12 13  1  0  0  0  0
 12 14  1  0  0  0  0
 12 43  1  0  0  0  0
 13 44  1  0  0  0  0
 13 45  1  0  0  0  0
 13 46  1  0  0  0  0
 14 15  2  0  0  0  0
 14 20  1  0  0  0  0
 15 16  1  0  0  0  0
 15 47  1  0  0  0  0
 16 17  1  0  0  0  0
 16 26  2  3  0  0  0
 17 18  1  0  0  0  0
 17 48  1  0  0  0  0
 18 19  1  0  0  0  0
 18 49  1  0  0  0  0
 18 50  1  0  0  0  0
 19 20  1  0  0  0  0
 19 51  1  0  0  0  0
 19 52  1  0  0  0  0
 20 21  1  0  0  0  0
 20 53  1  0  0  0  0
 21 22  1  0  0  0  0
 21 54  1  0  0  0  0
 21 55  1  0  0  0  0
 22 23  1  0  0  0  0
 22 56  1  0  0  0  0
 22 57  1  0  0  0  0
 23 24  1  0  0  0  0
 23 58  1  0  0  0  0
 23 59  1  0  0  0  0
 24 25  1  0  0  0  0
 24 60  1  0  0  0  0
 24 61  1  0  0  0  0
 25 62  1  0  0  0  0
 26 27  1  0  0  0  0
 26 63  1  0  0  0  0
 27 64  1  0  0  0  0
M  END
$$$$
