
 OpenBabel04232217003D

237236  0  0  1  0  0  0  0  0999 V2000
    0.9354    0.0390   -0.0412 O   0  0  0  0  0  0  0  0  0  0  0  0
    2.3554    0.0931   -0.0898 C   0  0  0  0  0  0  0  0  0  0  0  0
    2.8547   -0.7040   -1.2948 C   0  0  3  0  0  0  0  0  0  0  0  0
    2.2915   -0.1211   -2.5971 C   0  0  0  0  0  0  0  0  0  0  0  0
    4.3877   -0.7223   -1.2998 C   0  0  0  0  0  0  0  0  0  0  0  0
    4.9386   -1.5326   -2.4655 C   0  0  0  0  0  0  0  0  0  0  0  0
    6.4539   -1.5417   -2.4571 C   0  0  0  0  0  0  0  0  0  0  0  0
    6.9534   -2.3455   -3.6435 C   0  0  0  0  0  0  0  0  0  0  0  0
    8.4676   -2.3508   -3.6571 C   0  0  0  0  0  0  0  0  0  0  0  0
    8.9711   -3.1566   -4.8381 C   0  0  0  0  0  0  0  0  0  0  0  0
   10.4870   -3.1608   -4.8418 C   0  0  0  0  0  0  0  0  0  0  0  0
   10.9960   -3.9680   -6.0195 C   0  0  0  0  0  0  0  0  0  0  0  0
   12.5123   -3.9704   -6.0227 C   0  0  0  0  0  0  0  0  0  0  0  0
   13.0220   -4.7764   -7.2017 C   0  0  0  0  0  0  0  0  0  0  0  0
   14.5384   -4.7804   -7.2044 C   0  0  0  0  0  0  0  0  0  0  0  0
   15.0483   -5.5864   -8.3835 C   0  0  0  0  0  0  0  0  0  0  0  0
   16.5649   -5.5890   -8.3874 C   0  0  0  0  0  0  0  0  0  0  0  0
   17.0749   -6.3965   -9.5655 C   0  0  0  0  0  0  0  0  0  0  0  0
   18.5915   -6.3976   -9.5705 C   0  0  0  0  0  0  0  0  0  0  0  0
   19.1015   -7.2037  -10.7496 C   0  0  0  0  0  0  0  0  0  0  0  0
   20.6182   -7.2061  -10.7538 C   0  0  0  0  0  0  0  0  0  0  0  0
   21.1282   -8.0136  -11.9319 C   0  0  0  0  0  0  0  0  0  0  0  0
   22.6449   -8.0147  -11.9369 C   0  0  0  0  0  0  0  0  0  0  0  0
   23.1552   -8.8239  -13.1137 C   0  0  0  0  0  0  0  0  0  0  0  0
   24.6719   -8.8238  -13.1199 C   0  0  0  0  0  0  0  0  0  0  0  0
   25.1817   -9.6336  -14.2965 C   0  0  0  0  0  0  0  0  0  0  0  0
   26.6987   -9.6346  -14.3013 C   0  0  0  0  0  0  0  0  0  0  0  0
   27.2084  -10.4447  -15.4783 C   0  0  0  0  0  0  0  0  0  0  0  0
   28.7251  -10.4462  -15.4826 C   0  0  0  0  0  0  0  0  0  0  0  0
   29.2347  -11.2537  -16.6608 C   0  0  0  0  0  0  0  0  0  0  0  0
   30.7512  -11.2542  -16.6654 C   0  0  0  0  0  0  0  0  0  0  0  0
   31.2613  -12.0621  -17.8433 C   0  0  0  0  0  0  0  0  0  0  0  0
   32.7779  -12.0633  -17.8485 C   0  0  0  0  0  0  0  0  0  0  0  0
   33.2880  -12.8708  -19.0266 C   0  0  0  0  0  0  0  0  0  0  0  0
   34.8047  -12.8717  -19.0318 C   0  0  0  0  0  0  0  0  0  0  0  0
   35.3147  -13.6791  -20.2100 C   0  0  0  0  0  0  0  0  0  0  0  0
   36.8313  -13.6787  -20.2162 C   0  0  0  0  0  0  0  0  0  0  0  0
   37.3415  -14.4847  -21.3953 C   0  0  0  0  0  0  0  0  0  0  0  0
   38.8581  -14.4858  -21.4004 C   0  0  0  0  0  0  0  0  0  0  0  0
   39.3681  -15.2902  -22.5806 C   0  0  0  0  0  0  0  0  0  0  0  0
   40.8847  -15.2925  -22.5850 C   0  0  0  0  0  0  0  0  0  0  0  0
   41.3949  -16.0954  -23.7661 C   0  0  0  0  0  0  0  0  0  0  0  0
   42.9115  -16.0979  -23.7701 C   0  0  0  0  0  0  0  0  0  0  0  0
   43.4212  -16.9004  -24.9518 C   0  0  0  0  0  0  0  0  0  0  0  0
   44.9378  -16.9029  -24.9559 C   0  0  0  0  0  0  0  0  0  0  0  0
   45.4479  -17.7058  -26.1372 C   0  0  0  0  0  0  0  0  0  0  0  0
   46.9645  -17.7083  -26.1411 C   0  0  0  0  0  0  0  0  0  0  0  0
   47.4748  -18.5125  -27.3215 C   0  0  0  0  0  0  0  0  0  0  0  0
   48.9914  -18.5137  -27.3264 C   0  0  0  0  0  0  0  0  0  0  0  0
   49.5015  -19.3195  -28.5057 C   0  0  0  0  0  0  0  0  0  0  0  0
   51.0182  -19.3223  -28.5097 C   0  0  0  0  0  0  0  0  0  0  0  0
   51.5286  -20.1287  -29.6885 C   0  0  0  0  0  0  0  0  0  0  0  0
   53.0451  -20.1332  -29.6914 C   0  0  0  0  0  0  0  0  0  0  0  0
   53.5548  -20.9400  -30.8697 C   0  0  0  0  0  0  0  0  0  0  0  0
   55.0717  -20.9429  -30.8742 C   0  0  0  0  0  0  0  0  0  0  0  0
   55.5817  -21.7497  -32.0526 C   0  0  0  0  0  0  0  0  0  0  0  0
   57.0982  -21.7524  -32.0570 C   0  0  0  0  0  0  0  0  0  0  0  0
   57.6082  -22.5593  -33.2353 C   0  0  0  0  0  0  0  0  0  0  0  0
   59.1251  -22.5613  -33.2401 C   0  0  0  0  0  0  0  0  0  0  0  0
   59.6352  -23.3685  -34.4181 C   0  0  0  0  0  0  0  0  0  0  0  0
   61.1523  -23.3709  -34.4218 C   0  0  0  0  0  0  0  0  0  0  0  0
   61.6603  -24.1790  -35.6001 C   0  0  0  0  0  0  0  0  0  0  0  0
   63.1771  -24.1820  -35.6038 C   0  0  0  0  0  0  0  0  0  0  0  0
   63.6870  -24.9892  -36.7817 C   0  0  0  0  0  0  0  0  0  0  0  0
   65.2047  -24.9923  -36.7849 C   0  0  0  0  0  0  0  0  0  0  0  0
   65.7151  -25.8003  -37.9627 C   0  0  0  0  0  0  0  0  0  0  0  0
   67.2317  -25.8031  -37.9666 C   0  0  0  0  0  0  0  0  0  0  0  0
   67.7417  -26.6123  -39.1436 C   0  0  0  0  0  0  0  0  0  0  0  0
   69.2585  -26.6152  -39.1478 C   0  0  0  0  0  0  0  0  0  0  0  0
   69.7687  -27.4246  -40.3249 C   0  0  0  0  0  0  0  0  0  0  0  0
   71.2858  -27.4275  -40.3291 C   0  0  0  0  0  0  0  0  0  0  0  0
   71.7968  -28.2370  -41.5062 C   0  0  0  0  0  0  0  0  0  0  0  0
   73.3143  -28.2402  -41.5110 C   0  0  0  0  0  0  0  0  0  0  0  0
   73.8307  -29.0518  -42.6894 C   0  0  0  0  0  0  0  0  0  0  0  0
   75.3456  -29.0563  -42.6941 C   0  0  0  0  0  0  0  0  0  0  0  0
   75.8617  -29.8686  -43.8720 C   0  0  0  0  0  0  0  0  0  0  0  0
   77.3803  -29.8762  -43.8797 C   0  0  0  0  0  0  0  0  0  0  0  0
   77.9086  -30.6861  -45.0572 C   0  0  0  0  0  0  0  0  0  0  0  0
   79.4280  -30.6929  -45.0636 C   0  0  0  0  0  0  0  0  0  0  0  0
    0.6534    0.6069    0.6900 H   0  0  0  0  0  0  0  0  0  0  0  0
    2.7434   -0.3255    0.8448 H   0  0  0  0  0  0  0  0  0  0  0  0
    2.6654    1.1415   -0.1585 H   0  0  0  0  0  0  0  0  0  0  0  0
    2.4850   -1.7344   -1.2071 H   0  0  0  0  0  0  0  0  0  0  0  0
    2.6589    0.8983   -2.7569 H   0  0  0  0  0  0  0  0  0  0  0  0
    1.1975   -0.0964   -2.5835 H   0  0  0  0  0  0  0  0  0  0  0  0
    2.5722   -0.7227   -3.4658 H   0  0  0  0  0  0  0  0  0  0  0  0
    4.7545   -1.1526   -0.3582 H   0  0  0  0  0  0  0  0  0  0  0  0
    4.7762    0.3030   -1.3494 H   0  0  0  0  0  0  0  0  0  0  0  0
    4.6169   -1.1026   -3.4192 H   0  0  0  0  0  0  0  0  0  0  0  0
    4.5532   -2.5584   -2.4221 H   0  0  0  0  0  0  0  0  0  0  0  0
    6.8280   -1.9732   -1.5216 H   0  0  0  0  0  0  0  0  0  0  0  0
    6.8315   -0.5135   -2.5204 H   0  0  0  0  0  0  0  0  0  0  0  0
    6.5741   -1.9140   -4.5797 H   0  0  0  0  0  0  0  0  0  0  0  0
    6.5739   -3.3741   -3.5880 H   0  0  0  0  0  0  0  0  0  0  0  0
    8.8459   -2.7807   -2.7214 H   0  0  0  0  0  0  0  0  0  0  0  0
    8.8435   -1.3220   -3.7184 H   0  0  0  0  0  0  0  0  0  0  0  0
    8.5947   -2.7258   -5.7744 H   0  0  0  0  0  0  0  0  0  0  0  0
    8.5931   -4.1848   -4.7791 H   0  0  0  0  0  0  0  0  0  0  0  0
   10.8618   -3.5893   -3.9040 H   0  0  0  0  0  0  0  0  0  0  0  0
   10.8635   -2.1321   -4.9017 H   0  0  0  0  0  0  0  0  0  0  0  0
   10.6200   -3.5399   -6.9569 H   0  0  0  0  0  0  0  0  0  0  0  0
   10.6199   -4.9967   -5.9584 H   0  0  0  0  0  0  0  0  0  0  0  0
   12.8877   -4.3994   -5.0855 H   0  0  0  0  0  0  0  0  0  0  0  0
   12.8880   -2.9415   -6.0822 H   0  0  0  0  0  0  0  0  0  0  0  0
   12.6471   -4.3463   -8.1387 H   0  0  0  0  0  0  0  0  0  0  0  0
   12.6450   -5.8049   -7.1428 H   0  0  0  0  0  0  0  0  0  0  0  0
   14.9131   -5.2103   -6.2673 H   0  0  0  0  0  0  0  0  0  0  0  0
   14.9152   -3.7518   -7.2632 H   0  0  0  0  0  0  0  0  0  0  0  0
   14.6726   -5.1573   -9.3206 H   0  0  0  0  0  0  0  0  0  0  0  0
   14.6724   -6.6152   -8.3239 H   0  0  0  0  0  0  0  0  0  0  0  0
   16.9407   -6.0169   -7.4498 H   0  0  0  0  0  0  0  0  0  0  0  0
   16.9405   -4.5601   -8.4482 H   0  0  0  0  0  0  0  0  0  0  0  0
   16.6980   -5.9694  -10.5030 H   0  0  0  0  0  0  0  0  0  0  0  0
   16.7002   -7.4257   -9.5039 H   0  0  0  0  0  0  0  0  0  0  0  0
   18.9683   -6.8258   -8.6334 H   0  0  0  0  0  0  0  0  0  0  0  0
   18.9663   -5.3684   -9.6309 H   0  0  0  0  0  0  0  0  0  0  0  0
   18.7256   -6.7747  -11.6866 H   0  0  0  0  0  0  0  0  0  0  0  0
   18.7259   -8.2326  -10.6899 H   0  0  0  0  0  0  0  0  0  0  0  0
   20.9942   -7.6340   -9.8162 H   0  0  0  0  0  0  0  0  0  0  0  0
   20.9938   -6.1772  -10.8147 H   0  0  0  0  0  0  0  0  0  0  0  0
   20.7513   -7.5867  -12.8695 H   0  0  0  0  0  0  0  0  0  0  0  0
   20.7535   -9.0428  -11.8701 H   0  0  0  0  0  0  0  0  0  0  0  0
   23.0218   -8.4403  -10.9987 H   0  0  0  0  0  0  0  0  0  0  0  0
   23.0194   -6.9855  -11.9999 H   0  0  0  0  0  0  0  0  0  0  0  0
   22.7772   -8.3991  -14.0519 H   0  0  0  0  0  0  0  0  0  0  0  0
   22.7814   -9.8534  -13.0498 H   0  0  0  0  0  0  0  0  0  0  0  0
   25.0496   -9.2484  -12.1815 H   0  0  0  0  0  0  0  0  0  0  0  0
   25.0455   -7.7943  -13.1839 H   0  0  0  0  0  0  0  0  0  0  0  0
   24.8053   -9.2078  -15.2346 H   0  0  0  0  0  0  0  0  0  0  0  0
   24.8071  -10.6626  -14.2332 H   0  0  0  0  0  0  0  0  0  0  0  0
   27.0761  -10.0605  -13.3636 H   0  0  0  0  0  0  0  0  0  0  0  0
   27.0731   -8.6067  -14.3654 H   0  0  0  0  0  0  0  0  0  0  0  0
   26.8320  -10.0188  -16.4166 H   0  0  0  0  0  0  0  0  0  0  0  0
   26.8334  -11.4740  -15.4156 H   0  0  0  0  0  0  0  0  0  0  0  0
   29.1019  -10.8727  -14.5450 H   0  0  0  0  0  0  0  0  0  0  0  0
   29.0998   -9.4171  -15.5448 H   0  0  0  0  0  0  0  0  0  0  0  0
   28.8575  -10.8271  -17.5984 H   0  0  0  0  0  0  0  0  0  0  0  0
   28.8603  -12.2831  -16.5990 H   0  0  0  0  0  0  0  0  0  0  0  0
   31.1279  -11.6808  -15.7276 H   0  0  0  0  0  0  0  0  0  0  0  0
   31.1256  -10.2249  -16.7271 H   0  0  0  0  0  0  0  0  0  0  0  0
   30.8843  -11.6352  -18.7809 H   0  0  0  0  0  0  0  0  0  0  0  0
   30.8865  -13.0912  -17.7814 H   0  0  0  0  0  0  0  0  0  0  0  0
   33.1550  -12.4901  -16.9109 H   0  0  0  0  0  0  0  0  0  0  0  0
   33.1525  -11.0340  -17.9103 H   0  0  0  0  0  0  0  0  0  0  0  0
   32.9110  -12.4438  -19.9641 H   0  0  0  0  0  0  0  0  0  0  0  0
   32.9134  -13.9001  -18.9650 H   0  0  0  0  0  0  0  0  0  0  0  0
   35.1818  -13.2986  -18.0943 H   0  0  0  0  0  0  0  0  0  0  0  0
   35.1790  -11.8424  -19.0935 H   0  0  0  0  0  0  0  0  0  0  0  0
   34.9367  -13.2527  -21.1474 H   0  0  0  0  0  0  0  0  0  0  0  0
   34.9411  -14.7087  -20.1478 H   0  0  0  0  0  0  0  0  0  0  0  0
   37.2093  -14.1060  -19.2792 H   0  0  0  0  0  0  0  0  0  0  0  0
   37.2050  -12.6491  -20.2773 H   0  0  0  0  0  0  0  0  0  0  0  0
   36.9645  -14.0564  -22.3323 H   0  0  0  0  0  0  0  0  0  0  0  0
   36.9670  -15.5141  -21.3351 H   0  0  0  0  0  0  0  0  0  0  0  0
   39.2350  -14.9154  -20.4639 H   0  0  0  0  0  0  0  0  0  0  0  0
   39.2330  -13.4565  -21.4592 H   0  0  0  0  0  0  0  0  0  0  0  0
   38.9920  -14.8598  -23.5170 H   0  0  0  0  0  0  0  0  0  0  0  0
   38.9927  -16.3193  -22.5224 H   0  0  0  0  0  0  0  0  0  0  0  0
   41.2608  -15.7237  -21.6490 H   0  0  0  0  0  0  0  0  0  0  0  0
   41.2602  -14.2633  -22.6423 H   0  0  0  0  0  0  0  0  0  0  0  0
   41.0193  -15.6639  -24.7021 H   0  0  0  0  0  0  0  0  0  0  0  0
   41.0193  -17.1245  -23.7093 H   0  0  0  0  0  0  0  0  0  0  0  0
   43.2876  -16.5297  -22.8344 H   0  0  0  0  0  0  0  0  0  0  0  0
   43.2873  -15.0688  -23.8268 H   0  0  0  0  0  0  0  0  0  0  0  0
   43.0452  -16.4686  -25.8876 H   0  0  0  0  0  0  0  0  0  0  0  0
   43.0455  -17.9295  -24.8951 H   0  0  0  0  0  0  0  0  0  0  0  0
   45.3136  -17.3344  -24.0200 H   0  0  0  0  0  0  0  0  0  0  0  0
   45.3135  -15.8737  -25.0127 H   0  0  0  0  0  0  0  0  0  0  0  0
   45.0720  -17.2743  -27.0731 H   0  0  0  0  0  0  0  0  0  0  0  0
   45.0721  -18.7348  -26.0802 H   0  0  0  0  0  0  0  0  0  0  0  0
   47.3404  -18.1387  -25.2048 H   0  0  0  0  0  0  0  0  0  0  0  0
   47.3401  -16.6792  -26.1991 H   0  0  0  0  0  0  0  0  0  0  0  0
   47.0980  -18.0829  -28.2579 H   0  0  0  0  0  0  0  0  0  0  0  0
   47.1000  -19.5418  -27.2626 H   0  0  0  0  0  0  0  0  0  0  0  0
   49.3683  -18.9421  -26.3894 H   0  0  0  0  0  0  0  0  0  0  0  0
   49.3661  -17.4844  -27.3865 H   0  0  0  0  0  0  0  0  0  0  0  0
   49.1256  -18.8904  -29.4427 H   0  0  0  0  0  0  0  0  0  0  0  0
   49.1258  -20.3484  -28.4462 H   0  0  0  0  0  0  0  0  0  0  0  0
   51.3939  -19.7513  -27.5725 H   0  0  0  0  0  0  0  0  0  0  0  0
   51.3942  -18.2934  -28.5693 H   0  0  0  0  0  0  0  0  0  0  0  0
   51.1538  -19.6989  -30.6258 H   0  0  0  0  0  0  0  0  0  0  0  0
   51.1513  -21.1572  -29.6297 H   0  0  0  0  0  0  0  0  0  0  0  0
   53.4207  -20.5617  -28.7539 H   0  0  0  0  0  0  0  0  0  0  0  0
   53.4216  -19.1045  -29.7516 H   0  0  0  0  0  0  0  0  0  0  0  0
   53.1787  -20.5116  -31.8071 H   0  0  0  0  0  0  0  0  0  0  0  0
   53.1791  -21.9690  -30.8092 H   0  0  0  0  0  0  0  0  0  0  0  0
   55.4472  -21.3716  -29.9365 H   0  0  0  0  0  0  0  0  0  0  0  0
   55.4475  -19.9140  -30.9339 H   0  0  0  0  0  0  0  0  0  0  0  0
   55.2057  -21.3213  -32.9901 H   0  0  0  0  0  0  0  0  0  0  0  0
   55.2056  -22.7784  -31.9924 H   0  0  0  0  0  0  0  0  0  0  0  0
   57.4743  -22.1804  -31.1195 H   0  0  0  0  0  0  0  0  0  0  0  0
   57.4739  -20.7234  -32.1176 H   0  0  0  0  0  0  0  0  0  0  0  0
   57.2320  -22.1312  -34.1730 H   0  0  0  0  0  0  0  0  0  0  0  0
   57.2325  -23.5886  -33.1748 H   0  0  0  0  0  0  0  0  0  0  0  0
   59.5010  -22.9897  -32.3025 H   0  0  0  0  0  0  0  0  0  0  0  0
   59.5000  -21.5336  -33.3016 H   0  0  0  0  0  0  0  0  0  0  0  0
   59.2598  -22.9406  -35.3557 H   0  0  0  0  0  0  0  0  0  0  0  0
   59.2603  -24.3973  -34.3575 H   0  0  0  0  0  0  0  0  0  0  0  0
   61.5281  -23.7992  -33.4845 H   0  0  0  0  0  0  0  0  0  0  0  0
   61.5291  -22.3423  -34.4826 H   0  0  0  0  0  0  0  0  0  0  0  0
   61.2838  -23.7508  -36.5372 H   0  0  0  0  0  0  0  0  0  0  0  0
   61.2842  -25.2075  -35.5387 H   0  0  0  0  0  0  0  0  0  0  0  0
   63.5528  -24.6091  -34.6658 H   0  0  0  0  0  0  0  0  0  0  0  0
   63.5512  -23.1526  -35.6648 H   0  0  0  0  0  0  0  0  0  0  0  0
   63.3117  -24.5614  -37.7185 H   0  0  0  0  0  0  0  0  0  0  0  0
   63.3121  -26.0182  -36.7202 H   0  0  0  0  0  0  0  0  0  0  0  0
   65.5802  -25.4201  -35.8471 H   0  0  0  0  0  0  0  0  0  0  0  0
   65.5807  -23.9635  -36.8459 H   0  0  0  0  0  0  0  0  0  0  0  0
   65.3393  -25.3727  -38.9005 H   0  0  0  0  0  0  0  0  0  0  0  0
   65.3391  -26.8290  -37.9016 H   0  0  0  0  0  0  0  0  0  0  0  0
   67.6074  -26.2296  -37.0285 H   0  0  0  0  0  0  0  0  0  0  0  0
   67.6075  -24.7743  -38.0290 H   0  0  0  0  0  0  0  0  0  0  0  0
   67.3659  -26.1858  -40.0818 H   0  0  0  0  0  0  0  0  0  0  0  0
   67.3658  -27.6411  -39.0812 H   0  0  0  0  0  0  0  0  0  0  0  0
   69.6341  -27.0417  -38.2095 H   0  0  0  0  0  0  0  0  0  0  0  0
   69.6341  -25.5865  -39.2101 H   0  0  0  0  0  0  0  0  0  0  0  0
   69.3927  -26.9980  -41.2629 H   0  0  0  0  0  0  0  0  0  0  0  0
   69.3928  -28.4533  -40.2623 H   0  0  0  0  0  0  0  0  0  0  0  0
   71.6612  -27.8538  -39.3907 H   0  0  0  0  0  0  0  0  0  0  0  0
   71.6612  -26.3987  -40.3914 H   0  0  0  0  0  0  0  0  0  0  0  0
   71.4206  -27.8104  -42.4443 H   0  0  0  0  0  0  0  0  0  0  0  0
   71.4206  -29.2655  -41.4435 H   0  0  0  0  0  0  0  0  0  0  0  0
   73.6895  -28.6651  -40.5718 H   0  0  0  0  0  0  0  0  0  0  0  0
   73.6894  -27.2113  -41.5743 H   0  0  0  0  0  0  0  0  0  0  0  0
   73.4502  -28.6259  -43.6257 H   0  0  0  0  0  0  0  0  0  0  0  0
   73.4503  -30.0797  -42.6230 H   0  0  0  0  0  0  0  0  0  0  0  0
   75.7207  -29.4807  -41.7540 H   0  0  0  0  0  0  0  0  0  0  0  0
   75.7208  -28.0264  -42.7568 H   0  0  0  0  0  0  0  0  0  0  0  0
   75.4849  -29.4416  -44.8089 H   0  0  0  0  0  0  0  0  0  0  0  0
   75.4829  -30.8953  -43.8073 H   0  0  0  0  0  0  0  0  0  0  0  0
   77.7541  -30.3016  -42.9394 H   0  0  0  0  0  0  0  0  0  0  0  0
   77.7564  -28.8468  -43.9390 H   0  0  0  0  0  0  0  0  0  0  0  0
   77.5402  -30.2606  -45.9980 H   0  0  0  0  0  0  0  0  0  0  0  0
   77.5379  -31.7160  -44.9981 H   0  0  0  0  0  0  0  0  0  0  0  0
   79.8172  -29.6732  -45.1449 H   0  0  0  0  0  0  0  0  0  0  0  0
   79.8001  -31.2743  -45.9090 H   0  0  0  0  0  0  0  0  0  0  0  0
   79.8148  -31.1355  -44.1404 H   0  0  0  0  0  0  0  0  0  0  0  0
  1  2  1  0  0  0  0
  1 80  1  0  0  0  0
  2  3  1  0  0  0  0
  2 81  1  0  0  0  0
  2 82  1  0  0  0  0
  3  4  1  0  0  0  0
  3  5  1  0  0  0  0
  3 83  1  0  0  0  0
  4 84  1  0  0  0  0
  4 85  1  0  0  0  0
  4 86  1  0  0  0  0
  5  6  1  0  0  0  0
  5 87  1  0  0  0  0
  5 88  1  0  0  0  0
  6  7  1  0  0  0  0
  6 89  1  0  0  0  0
  6 90  1  0  0  0  0
  7  8  1  0  0  0  0
  7 91  1  0  0  0  0
  7 92  1  0  0  0  0
  8  9  1  0  0  0  0
  8 93  1  0  0  0  0
  8 94  1  0  0  0  0
  9 10  1  0  0  0  0
  9 95  1  0  0  0  0
  9 96  1  0  0  0  0
 10 11  1  0  0  0  0
 10 97  1  0  0  0  0
 10 98  1  0  0  0  0
 11 12  1  0  0  0  0
 11 99  1  0  0  0  0
 11100  1  0  0  0  0
 12 13  1  0  0  0  0
 12101  1  0  0  0  0
 12102  1  0  0  0  0
 13 14  1  0  0  0  0
 13103  1  0  0  0  0
 13104  1  0  0  0  0
 14 15  1  0  0  0  0
 14105  1  0  0  0  0
 14106  1  0  0  0  0
 15 16  1  0  0  0  0
 15107  1  0  0  0  0
 15108  1  0  0  0  0
 16 17  1  0  0  0  0
 16109  1  0  0  0  0
 16110  1  0  0  0  0
 17 18  1  0  0  0  0
 17111  1  0  0  0  0
 17112  1  0  0  0  0
 18 19  1  0  0  0  0
 18113  1  0  0  0  0
 18114  1  0  0  0  0
 19 20  1  0  0  0  0
 19115  1  0  0  0  0
 19116  1  0  0  0  0
 20 21  1  0  0  0  0
 20117  1  0  0  0  0
 20118  1  0  0  0  0
 21 22  1  0  0  0  0
 21119  1  0  0  0  0
 21120  1  0  0  0  0
 22 23  1  0  0  0  0
 22121  1  0  0  0  0
 22122  1  0  0  0  0
 23 24  1  0  0  0  0
 23123  1  0  0  0  0
 23124  1  0  0  0  0
 24 25  1  0  0  0  0
 24125  1  0  0  0  0
 24126  1  0  0  0  0
 25 26  1  0  0  0  0
 25127  1  0  0  0  0
 25128  1  0  0  0  0
 26 27  1  0  0  0  0
 26129  1  0  0  0  0
 26130  1  0  0  0  0
 27 28  1  0  0  0  0
 27131  1  0  0  0  0
 27132  1  0  0  0  0
 28 29  1  0  0  0  0
 28133  1  0  0  0  0
 28134  1  0  0  0  0
 29 30  1  0  0  0  0
 29135  1  0  0  0  0
 29136  1  0  0  0  0
 30 31  1  0  0  0  0
 30137  1  0  0  0  0
 30138  1  0  0  0  0
 31 32  1  0  0  0  0
 31139  1  0  0  0  0
 31140  1  0  0  0  0
 32 33  1  0  0  0  0
 32141  1  0  0  0  0
 32142  1  0  0  0  0
 33 34  1  0  0  0  0
 33143  1  0  0  0  0
 33144  1  0  0  0  0
 34 35  1  0  0  0  0
 34145  1  0  0  0  0
 34146  1  0  0  0  0
 35 36  1  0  0  0  0
 35147  1  0  0  0  0
 35148  1  0  0  0  0
 36 37  1  0  0  0  0
 36149  1  0  0  0  0
 36150  1  0  0  0  0
 37 38  1  0  0  0  0
 37151  1  0  0  0  0
 37152  1  0  0  0  0
 38 39  1  0  0  0  0
 38153  1  0  0  0  0
 38154  1  0  0  0  0
 39 40  1  0  0  0  0
 39155  1  0  0  0  0
 39156  1  0  0  0  0
 40 41  1  0  0  0  0
 40157  1  0  0  0  0
 40158  1  0  0  0  0
 41 42  1  0  0  0  0
 41159  1  0  0  0  0
 41160  1  0  0  0  0
 42 43  1  0  0  0  0
 42161  1  0  0  0  0
 42162  1  0  0  0  0
 43 44  1  0  0  0  0
 43163  1  0  0  0  0
 43164  1  0  0  0  0
 44 45  1  0  0  0  0
 44165  1  0  0  0  0
 44166  1  0  0  0  0
 45 46  1  0  0  0  0
 45167  1  0  0  0  0
 45168  1  0  0  0  0
 46 47  1  0  0  0  0
 46169  1  0  0  0  0
 46170  1  0  0  0  0
 47 48  1  0  0  0  0
 47171  1  0  0  0  0
 47172  1  0  0  0  0
 48 49  1  0  0  0  0
 48173  1  0  0  0  0
 48174  1  0  0  0  0
 49 50  1  0  0  0  0
 49175  1  0  0  0  0
 49176  1  0  0  0  0
 50 51  1  0  0  0  0
 50177  1  0  0  0  0
 50178  1  0  0  0  0
 51 52  1  0  0  0  0
 51179  1  0  0  0  0
 51180  1  0  0  0  0
 52 53  1  0  0  0  0
 52181  1  0  0  0  0
 52182  1  0  0  0  0
 53 54  1  0  0  0  0
 53183  1  0  0  0  0
 53184  1  0  0  0  0
 54 55  1  0  0  0  0
 54185  1  0  0  0  0
 54186  1  0  0  0  0
 55 56  1  0  0  0  0
 55187  1  0  0  0  0
 55188  1  0  0  0  0
 56 57  1  0  0  0  0
 56189  1  0  0  0  0
 56190  1  0  0  0  0
 57 58  1  0  0  0  0
 57191  1  0  0  0  0
 57192  1  0  0  0  0
 58 59  1  0  0  0  0
 58193  1  0  0  0  0
 58194  1  0  0  0  0
 59 60  1  0  0  0  0
 59195  1  0  0  0  0
 59196  1  0  0  0  0
 60 61  1  0  0  0  0
 60197  1  0  0  0  0
 60198  1  0  0  0  0
 61 62  1  0  0  0  0
 61199  1  0  0  0  0
 61200  1  0  0  0  0
 62 63  1  0  0  0  0
 62201  1  0  0  0  0
 62202  1  0  0  0  0
 63 64  1  0  0  0  0
 63203  1  0  0  0  0
 63204  1  0  0  0  0
 64 65  1  0  0  0  0
 64205  1  0  0  0  0
 64206  1  0  0  0  0
 65 66  1  0  0  0  0
 65207  1  0  0  0  0
 65208  1  0  0  0  0
 66 67  1  0  0  0  0
 66209  1  0  0  0  0
 66210  1  0  0  0  0
 67 68  1  0  0  0  0
 67211  1  0  0  0  0
 67212  1  0  0  0  0
 68 69  1  0  0  0  0
 68213  1  0  0  0  0
 68214  1  0  0  0  0
 69 70  1  0  0  0  0
 69215  1  0  0  0  0
 69216  1  0  0  0  0
 70 71  1  0  0  0  0
 70217  1  0  0  0  0
 70218  1  0  0  0  0
 71 72  1  0  0  0  0
 71219  1  0  0  0  0
 71220  1  0  0  0  0
 72 73  1  0  0  0  0
 72221  1  0  0  0  0
 72222  1  0  0  0  0
 73 74  1  0  0  0  0
 73223  1  0  0  0  0
 73224  1  0  0  0  0
 74 75  1  0  0  0  0
 74225  1  0  0  0  0
 74226  1  0  0  0  0
 75 76  1  0  0  0  0
 75227  1  0  0  0  0
 75228  1  0  0  0  0
 76 77  1  0  0  0  0
 76229  1  0  0  0  0
 76230  1  0  0  0  0
 77 78  1  0  0  0  0
 77231  1  0  0  0  0
 77232  1  0  0  0  0
 78 79  1  0  0  0  0
 78233  1  0  0  0  0
 78234  1  0  0  0  0
 79235  1  0  0  0  0
 79236  1  0  0  0  0
 79237  1  0  0  0  0
M  END
$$$$
