
 OpenBabel04232216443D

 57 59  0  0  0  0  0  0  0  0999 V2000
    3.8886    0.2286    0.1394 C   0  0  0  0  0  0  0  0  0  0  0  0
    5.4298    0.0983    0.4027 C   0  0  0  0  0  0  0  0  0  0  0  0
    5.5996   -1.3146    0.1739 C   0  0  0  0  0  0  0  0  0  0  0  0
    5.7699   -2.0036   -1.0094 N   0  0  0  0  0  0  0  0  0  0  0  0
    4.8357   -3.0114   -1.5428 C   0  0  0  0  0  0  0  0  0  0  0  0
    4.9751   -3.2306   -3.0770 C   0  0  0  0  0  0  0  0  0  0  0  0
    6.4236   -3.3593   -3.5570 C   0  0  0  0  0  0  0  0  0  0  0  0
    6.5662   -3.6878   -5.0537 C   0  0  0  0  0  0  0  0  0  0  0  0
    8.0508   -3.7061   -5.4514 C   0  0  0  0  0  0  0  0  0  0  0  0
    8.2737   -4.0112   -6.9353 C   0  0  0  0  0  0  0  0  0  0  0  0
    9.7556   -4.0041   -7.2867 C   0  0  0  0  0  0  0  0  0  0  0  0
   10.3916   -4.9707   -6.5726 F   0  0  0  0  0  0  0  0  0  0  0  0
    6.4783   -2.3024    0.1757 C   0  0  0  0  0  0  0  0  0  0  0  0
    7.7195   -2.1154    0.6680 N   0  0  0  0  0  0  0  0  0  0  0  0
    8.5803   -1.7658   -0.2169 C   0  0  0  0  0  0  0  0  0  0  0  0
    9.6689   -0.8945    0.1409 C   0  0  0  0  0  0  0  0  0  0  0  0
    9.3751    0.3377   -0.3020 C   0  0  0  0  0  0  0  0  0  0  0  0
    9.6005    1.5697    0.4337 C   0  0  0  0  0  0  0  0  0  0  0  0
   10.6434    2.2519   -0.0569 C   0  0  0  0  0  0  0  0  0  0  0  0
   11.0208    3.5881    0.3097 C   0  0  0  0  0  0  0  0  0  0  0  0
   12.2613    3.8584    0.7630 C   0  0  0  0  0  0  0  0  0  0  0  0
   12.1922    4.5874    2.0406 C   0  0  0  0  0  0  0  0  0  0  0  0
   11.7281    3.7711    3.0212 C   0  0  0  0  0  0  0  0  0  0  0  0
   10.2363    3.6060    3.2901 C   0  0  0  0  0  0  0  0  0  0  0  0
    9.4627    2.4966    2.9272 C   0  0  0  0  0  0  0  0  0  0  0  0
    8.7514    1.9400    1.6226 C   0  0  0  0  0  0  0  0  0  0  0  0
    7.3922    1.6143    1.6917 C   0  0  0  0  0  0  0  0  0  0  0  0
    6.1733    1.1833    0.8078 C   0  0  0  0  0  0  0  0  0  0  0  0
    3.3941    1.0554    0.6628 H   0  0  0  0  0  0  0  0  0  0  0  0
    3.3376   -0.6674    0.5018 H   0  0  0  0  0  0  0  0  0  0  0  0
    3.6756    0.2865   -0.9315 H   0  0  0  0  0  0  0  0  0  0  0  0
    3.7886   -2.7229   -1.3446 H   0  0  0  0  0  0  0  0  0  0  0  0
    4.9975   -3.9708   -1.0493 H   0  0  0  0  0  0  0  0  0  0  0  0
    4.4815   -2.4157   -3.6192 H   0  0  0  0  0  0  0  0  0  0  0  0
    4.4252   -4.1441   -3.3421 H   0  0  0  0  0  0  0  0  0  0  0  0
    6.9279   -4.1373   -2.9723 H   0  0  0  0  0  0  0  0  0  0  0  0
    6.9400   -2.4126   -3.3646 H   0  0  0  0  0  0  0  0  0  0  0  0
    6.0338   -2.9422   -5.6568 H   0  0  0  0  0  0  0  0  0  0  0  0
    6.1138   -4.6634   -5.2710 H   0  0  0  0  0  0  0  0  0  0  0  0
    8.5761   -4.4546   -4.8458 H   0  0  0  0  0  0  0  0  0  0  0  0
    8.4984   -2.7326   -5.2161 H   0  0  0  0  0  0  0  0  0  0  0  0
    7.7543   -3.2715   -7.5545 H   0  0  0  0  0  0  0  0  0  0  0  0
    7.8576   -4.9975   -7.1695 H   0  0  0  0  0  0  0  0  0  0  0  0
   10.2253   -3.0439   -7.0529 H   0  0  0  0  0  0  0  0  0  0  0  0
    9.9085   -4.2196   -8.3484 H   0  0  0  0  0  0  0  0  0  0  0  0
    8.3980   -1.8510   -1.3402 H   0  0  0  0  0  0  0  0  0  0  0  0
   10.6890   -1.2636    0.0921 H   0  0  0  0  0  0  0  0  0  0  0  0
    8.6069    0.4953   -1.0518 H   0  0  0  0  0  0  0  0  0  0  0  0
   11.3053    1.7715   -0.7687 H   0  0  0  0  0  0  0  0  0  0  0  0
   10.1900    4.2052    0.6570 H   0  0  0  0  0  0  0  0  0  0  0  0
   13.1199    3.2220    0.5678 H   0  0  0  0  0  0  0  0  0  0  0  0
   11.6951    5.5354    1.8751 H   0  0  0  0  0  0  0  0  0  0  0  0
   12.3352    2.9018    3.2820 H   0  0  0  0  0  0  0  0  0  0  0  0
   10.3044    3.7266    4.3670 H   0  0  0  0  0  0  0  0  0  0  0  0
    9.7651    1.6103    3.4972 H   0  0  0  0  0  0  0  0  0  0  0  0
    6.9082    1.8972    2.6374 H   0  0  0  0  0  0  0  0  0  0  0  0
    5.6446    2.1285    0.6027 H   0  0  0  0  0  0  0  0  0  0  0  0
  1  2  1  0  0  0  0
  1 29  1  0  0  0  0
  1 30  1  0  0  0  0
  1 31  1  0  0  0  0
  2  3  1  0  0  0  0
  2 28  2  3  0  0  0
  3  4  1  0  0  0  0
  3 13  2  0  0  0  0
  4  5  1  0  0  0  0
  4 13  1  0  0  0  0
  5  6  1  0  0  0  0
  5 32  1  0  0  0  0
  5 33  1  0  0  0  0
  6  7  1  0  0  0  0
  6 34  1  0  0  0  0
  6 35  1  0  0  0  0
  7  8  1  0  0  0  0
  7 36  1  0  0  0  0
  7 37  1  0  0  0  0
  8  9  1  0  0  0  0
  8 38  1  0  0  0  0
  8 39  1  0  0  0  0
  9 10  1  0  0  0  0
  9 40  1  0  0  0  0
  9 41  1  0  0  0  0
 10 11  1  0  0  0  0
 10 42  1  0  0  0  0
 10 43  1  0  0  0  0
 11 12  1  0  0  0  0
 11 44  1  0  0  0  0
 11 45  1  0  0  0  0
 13 14  1  0  0  0  0
 14 15  2  3  0  0  0
 15 16  1  0  0  0  0
 15 46  1  0  0  0  0
 16 17  2  3  0  0  0
 16 47  1  0  0  0  0
 17 18  1  0  0  0  0
 17 48  1  0  0  0  0
 18 19  2  3  0  0  0
 18 26  1  0  0  0  0
 19 20  1  0  0  0  0
 19 49  1  0  0  0  0
 20 21  2  3  0  0  0
 20 50  1  0  0  0  0
 21 22  1  0  0  0  0
 21 51  1  0  0  0  0
 22 23  2  3  0  0  0
 22 52  1  0  0  0  0
 23 24  1  0  0  0  0
 23 53  1  0  0  0  0
 24 25  2  3  0  0  0
 24 54  1  0  0  0  0
 25 26  1  0  0  0  0
 25 55  1  0  0  0  0
 26 27  2  3  0  0  0
 27 28  1  0  0  0  0
 27 56  1  0  0  0  0
 28 57  1  0  0  0  0
M  END
$$$$
