
 OpenBabel04232216503D

 77 78  0  0  1  0  0  0  0  0999 V2000
    7.5830    2.1686   -2.1395 C   0  0  0  0  0  0  0  0  0  0  0  0
    8.0608    3.5368   -1.2500 C   0  0  3  0  0  0  0  0  0  0  0  0
    6.2962    3.5891   -0.7224 C   0  0  0  0  0  0  0  0  0  0  0  0
    5.6849    2.6186    0.5193 C   0  0  0  0  0  0  0  0  0  0  0  0
    5.2265    3.4610    1.7220 C   0  0  0  0  0  0  0  0  0  0  0  0
    6.5066    4.0818    2.1563 C   0  0  0  0  0  0  0  0  0  0  0  0
    6.5784    5.3905    1.4243 C   0  0  0  0  0  0  0  0  0  0  0  0
    7.9195    5.2989    0.7335 C   0  0  0  0  0  0  0  0  0  0  0  0
    8.7577    6.0813    1.5669 C   0  0  0  0  0  0  0  0  0  0  0  0
   10.1154    5.5686    1.9313 C   0  0  0  0  0  0  0  0  0  0  0  0
   10.9250    6.8176    2.2271 C   0  0  0  0  0  0  0  0  0  0  0  0
   10.0413    8.0835    1.9783 C   0  0  0  0  0  0  0  0  0  0  0  0
   10.2611    9.4803    2.3954 C   0  0  0  0  0  0  0  0  0  0  0  0
   11.6848    9.7885    2.4745 C   0  0  0  0  0  0  0  0  0  0  0  0
   12.5029    9.5679    3.3605 O   0  0  0  0  0  0  0  0  0  0  0  0
   12.0485   10.0660    1.0607 C   0  0  0  0  0  0  0  0  0  0  0  0
   12.0594    8.6500    0.4488 C   0  0  0  0  0  0  0  0  0  0  0  0
   11.7883    8.1182   -0.8289 C   0  0  0  0  0  0  0  0  0  0  0  0
   13.4102    9.0271   -1.1926 C   0  0  0  0  0  0  0  0  0  0  0  0
   14.4598   10.4137   -0.3174 C   0  0  0  0  0  0  0  0  0  0  0  0
   14.7803   12.1417    0.2181 C   0  0  0  0  0  0  0  0  0  0  0  0
   13.6914   13.0553    0.7886 C   0  0  0  0  0  0  0  0  0  0  0  0
   13.3192   14.5427    1.1557 C   0  0  0  0  0  0  0  0  0  0  0  0
   11.7897   14.4444    1.4099 C   0  0  0  0  0  0  0  0  0  0  0  0
   10.4067   13.8589    1.3260 C   0  0  0  0  0  0  0  0  0  0  0  0
   10.4027   12.2738    1.1437 C   0  0  0  0  0  0  0  0  0  0  0  0
   11.5387   11.2379    0.5581 C   0  0  0  0  0  0  0  0  0  0  0  0
   10.9589    6.3407   -1.2420 C   0  0  0  0  0  0  0  0  0  0  0  0
    9.5705    4.8534   -1.5584 C   0  0  0  0  0  0  0  0  0  0  0  0
    6.8512    1.5820   -1.5000 H   0  0  0  0  0  0  0  0  0  0  0  0
    8.2677    1.3393   -2.2982 H   0  0  0  0  0  0  0  0  0  0  0  0
    6.9158    2.3847   -2.9942 H   0  0  0  0  0  0  0  0  0  0  0  0
    8.5228    2.9426   -0.4455 H   0  0  0  0  0  0  0  0  0  0  0  0
    5.6608    3.1325   -1.5120 H   0  0  0  0  0  0  0  0  0  0  0  0
    5.8390    4.5686   -0.8141 H   0  0  0  0  0  0  0  0  0  0  0  0
    6.4272    1.8724    0.8465 H   0  0  0  0  0  0  0  0  0  0  0  0
    4.8092    2.0098    0.2300 H   0  0  0  0  0  0  0  0  0  0  0  0
    4.7759    2.9386    2.5723 H   0  0  0  0  0  0  0  0  0  0  0  0
    4.4792    4.1920    1.3820 H   0  0  0  0  0  0  0  0  0  0  0  0
    7.3055    3.3850    1.8461 H   0  0  0  0  0  0  0  0  0  0  0  0
    6.7316    4.1648    3.2158 H   0  0  0  0  0  0  0  0  0  0  0  0
    6.4374    6.2373    2.0969 H   0  0  0  0  0  0  0  0  0  0  0  0
    5.8250    5.6057    0.6636 H   0  0  0  0  0  0  0  0  0  0  0  0
    7.8232    5.7012   -0.2720 H   0  0  0  0  0  0  0  0  0  0  0  0
    8.4001    4.3321    0.7414 H   0  0  0  0  0  0  0  0  0  0  0  0
    8.2927    6.3438    2.5205 H   0  0  0  0  0  0  0  0  0  0  0  0
    8.7305    6.9114    0.8668 H   0  0  0  0  0  0  0  0  0  0  0  0
   10.5590    4.9342    1.1570 H   0  0  0  0  0  0  0  0  0  0  0  0
   10.0730    4.9387    2.8225 H   0  0  0  0  0  0  0  0  0  0  0  0
   11.3620    6.8176    3.2192 H   0  0  0  0  0  0  0  0  0  0  0  0
   11.7687    6.6710    1.5506 H   0  0  0  0  0  0  0  0  0  0  0  0
    9.8957    8.1377    0.8730 H   0  0  0  0  0  0  0  0  0  0  0  0
    9.0565    7.9989    2.4214 H   0  0  0  0  0  0  0  0  0  0  0  0
    9.6493    9.9062    3.1641 H   0  0  0  0  0  0  0  0  0  0  0  0
    9.8436    9.9679    1.4872 H   0  0  0  0  0  0  0  0  0  0  0  0
   12.8164    8.0555    1.0063 H   0  0  0  0  0  0  0  0  0  0  0  0
   13.5613    9.1942   -2.2812 H   0  0  0  0  0  0  0  0  0  0  0  0
   14.1450    8.2441   -0.9326 H   0  0  0  0  0  0  0  0  0  0  0  0
   14.7785    9.9105    0.6115 H   0  0  0  0  0  0  0  0  0  0  0  0
   15.3477   10.3822   -0.9701 H   0  0  0  0  0  0  0  0  0  0  0  0
   15.3206   12.7019   -0.5584 H   0  0  0  0  0  0  0  0  0  0  0  0
   15.5194   12.0725    1.0464 H   0  0  0  0  0  0  0  0  0  0  0  0
   13.4111   12.5423    1.7098 H   0  0  0  0  0  0  0  0  0  0  0  0
   13.0665   12.9530   -0.0830 H   0  0  0  0  0  0  0  0  0  0  0  0
   13.4646   15.3185    0.3812 H   0  0  0  0  0  0  0  0  0  0  0  0
   13.7089   14.9928    2.0890 H   0  0  0  0  0  0  0  0  0  0  0  0
   11.9649   13.7784    2.2714 H   0  0  0  0  0  0  0  0  0  0  0  0
   11.7559   14.1106    0.3572 H   0  0  0  0  0  0  0  0  0  0  0  0
    9.8077   14.3897    0.5580 H   0  0  0  0  0  0  0  0  0  0  0  0
    9.8885   14.1819    2.2532 H   0  0  0  0  0  0  0  0  0  0  0  0
    9.6070   12.1395    0.3983 H   0  0  0  0  0  0  0  0  0  0  0  0
    9.9838   11.9145    2.0908 H   0  0  0  0  0  0  0  0  0  0  0  0
   11.7739   11.4428   -0.4797 H   0  0  0  0  0  0  0  0  0  0  0  0
   11.6206    5.7267   -0.4728 H   0  0  0  0  0  0  0  0  0  0  0  0
   11.5386    6.1098   -2.1570 H   0  0  0  0  0  0  0  0  0  0  0  0
   10.1709    4.1638   -0.9238 H   0  0  0  0  0  0  0  0  0  0  0  0
    9.8488    4.5232   -2.5782 H   0  0  0  0  0  0  0  0  0  0  0  0
  1  2  1  0  0  0  0
  1 30  1  0  0  0  0
  1 31  1  0  0  0  0
  1 32  1  0  0  0  0
  2  3  1  0  0  0  0
  2 29  1  0  0  0  0
  2 33  1  0  0  0  0
  3  4  1  0  0  0  0
  3 34  1  0  0  0  0
  3 35  1  0  0  0  0
  4  5  1  0  0  0  0
  4 36  1  0  0  0  0
  4 37  1  0  0  0  0
  5  6  1  0  0  0  0
  5 38  1  0  0  0  0
  5 39  1  0  0  0  0
  6  7  1  0  0  0  0
  6 40  1  0  0  0  0
  6 41  1  0  0  0  0
  7  8  1  0  0  0  0
  7 42  1  0  0  0  0
  7 43  1  0  0  0  0
  8  9  1  0  0  0  0
  8 44  1  0  0  0  0
  8 45  1  0  0  0  0
  9 10  1  0  0  0  0
  9 46  1  0  0  0  0
  9 47  1  0  0  0  0
 10 11  1  0  0  0  0
 10 48  1  0  0  0  0
 10 49  1  0  0  0  0
 11 12  1  0  0  0  0
 11 50  1  0  0  0  0
 11 51  1  0  0  0  0
 12 13  1  0  0  0  0
 12 52  1  0  0  0  0
 12 53  1  0  0  0  0
 13 14  1  0  0  0  0
 13 54  1  0  0  0  0
 13 55  1  0  0  0  0
 14 15  2  0  0  0  0
 14 16  1  0  0  0  0
 16 17  1  0  0  0  0
 16 27  2  3  0  0  0
 17 18  2  3  0  0  0
 17 56  1  0  0  0  0
 18 19  1  0  0  0  0
 18 28  1  0  0  0  0
 19 20  1  0  0  0  0
 19 57  1  0  0  0  0
 19 58  1  0  0  0  0
 20 21  1  0  0  0  0
 20 59  1  0  0  0  0
 20 60  1  0  0  0  0
 21 22  1  0  0  0  0
 21 61  1  0  0  0  0
 21 62  1  0  0  0  0
 22 23  1  0  0  0  0
 22 63  1  0  0  0  0
 22 64  1  0  0  0  0
 23 24  1  0  0  0  0
 23 65  1  0  0  0  0
 23 66  1  0  0  0  0
 24 25  1  0  0  0  0
 24 67  1  0  0  0  0
 24 68  1  0  0  0  0
 25 26  1  0  0  0  0
 25 69  1  0  0  0  0
 25 70  1  0  0  0  0
 26 27  1  0  0  0  0
 26 71  1  0  0  0  0
 26 72  1  0  0  0  0
 27 73  1  0  0  0  0
 28 29  1  0  0  0  0
 28 74  1  0  0  0  0
 28 75  1  0  0  0  0
 29 76  1  0  0  0  0
 29 77  1  0  0  0  0
M  END
$$$$
