
 OpenBabel04232216503D

 65 66  0  0  1  0  0  0  0  0999 V2000
    0.7148    0.0549   -0.0953 C   0  0  0  0  0  0  0  0  0  0  0  0
    2.2455   -0.0916   -0.0564 C   0  0  3  0  0  0  0  0  0  0  0  0
    2.9121    1.2299   -0.5973 C   0  0  0  0  0  0  0  0  0  0  0  0
    3.5172    2.1581    0.3645 N   0  0  0  0  0  0  0  0  0  0  0  0
    2.5663    2.7797    1.2821 C   0  0  0  0  0  0  0  0  0  0  0  0
    3.2390    2.9676    2.6462 C   0  0  0  0  0  0  0  0  0  0  0  0
    2.2196    3.0487    3.7920 C   0  0  0  0  0  0  0  0  0  0  0  0
    2.4052    1.9523    4.8553 C   0  0  0  0  0  0  0  0  0  0  0  0
    2.0491    0.5485    4.3520 C   0  0  0  0  0  0  0  0  0  0  0  0
    3.2668   -0.3846    4.2486 C   0  0  0  0  0  0  0  0  0  0  0  0
    2.9262   -1.7021    3.5384 C   0  0  0  0  0  0  0  0  0  0  0  0
    2.4014   -1.5834    2.0960 C   0  0  0  0  0  0  0  0  0  0  0  0
    1.5304   -2.5391    1.6293 N   0  0  0  0  0  0  0  0  0  0  0  0
    1.1035   -3.7155    2.2114 C   0  0  0  0  0  0  0  0  0  0  0  0
    1.3554   -4.1146    3.3389 O   0  0  0  0  0  0  0  0  0  0  0  0
    0.2127   -4.5131    1.3248 C   0  0  0  0  0  0  0  0  0  0  0  0
    0.1268   -4.4781   -0.0153 C   0  0  0  0  0  0  0  0  0  0  0  0
    0.8611   -3.7433   -0.9117 N   0  0  0  0  0  0  0  0  0  0  0  0
    2.3043   -3.8119   -1.0784 C   0  0  0  0  0  0  0  0  0  0  0  0
    2.7089   -4.8341   -2.1279 C   0  0  0  0  0  0  0  0  0  0  0  0
    4.2330   -4.8578   -2.2570 C   0  0  0  0  0  0  0  0  0  0  0  0
    4.6864   -5.8689   -3.2920 C   0  0  0  0  0  0  0  0  0  0  0  0
   -0.9463   -5.4097   -0.5067 C   0  0  0  0  0  0  0  0  0  0  0  0
   -1.3129   -6.2269    0.7328 C   0  0  0  0  0  0  0  0  0  0  0  0
   -0.7647   -5.4626    1.9350 C   0  0  0  0  0  0  0  0  0  0  0  0
    2.7702   -0.5528    1.2959 C   0  0  0  0  0  0  0  0  0  0  0  0
    0.3875    0.3606   -1.0947 H   0  0  0  0  0  0  0  0  0  0  0  0
    0.3489    0.7935    0.6211 H   0  0  0  0  0  0  0  0  0  0  0  0
    0.1916   -0.8779    0.1214 H   0  0  0  0  0  0  0  0  0  0  0  0
    2.5173   -0.8604   -0.7846 H   0  0  0  0  0  0  0  0  0  0  0  0
    2.2111    1.7765   -1.2409 H   0  0  0  0  0  0  0  0  0  0  0  0
    3.7271    0.9169   -1.2635 H   0  0  0  0  0  0  0  0  0  0  0  0
    4.0349    2.8834   -0.1319 H   0  0  0  0  0  0  0  0  0  0  0  0
    1.6716    2.1724    1.4065 H   0  0  0  0  0  0  0  0  0  0  0  0
    2.2381    3.7468    0.8827 H   0  0  0  0  0  0  0  0  0  0  0  0
    3.8359    3.8879    2.6232 H   0  0  0  0  0  0  0  0  0  0  0  0
    3.9519    2.1589    2.8370 H   0  0  0  0  0  0  0  0  0  0  0  0
    1.1894    3.0158    3.4156 H   0  0  0  0  0  0  0  0  0  0  0  0
    2.3299    4.0210    4.2860 H   0  0  0  0  0  0  0  0  0  0  0  0
    1.7362    2.1899    5.6915 H   0  0  0  0  0  0  0  0  0  0  0  0
    3.4254    1.9849    5.2543 H   0  0  0  0  0  0  0  0  0  0  0  0
    1.5178    0.6217    3.3987 H   0  0  0  0  0  0  0  0  0  0  0  0
    1.3368    0.0910    5.0507 H   0  0  0  0  0  0  0  0  0  0  0  0
    3.6092   -0.6261    5.2634 H   0  0  0  0  0  0  0  0  0  0  0  0
    4.1127    0.1080    3.7600 H   0  0  0  0  0  0  0  0  0  0  0  0
    2.1689   -2.1728    4.1616 H   0  0  0  0  0  0  0  0  0  0  0  0
    3.8025   -2.3626    3.5291 H   0  0  0  0  0  0  0  0  0  0  0  0
    1.2244   -2.4467    0.6670 H   0  0  0  0  0  0  0  0  0  0  0  0
    0.3451   -3.0837   -1.4899 H   0  0  0  0  0  0  0  0  0  0  0  0
    2.7940   -4.0524   -0.1290 H   0  0  0  0  0  0  0  0  0  0  0  0
    2.6603   -2.8293   -1.3914 H   0  0  0  0  0  0  0  0  0  0  0  0
    2.2534   -4.5811   -3.0928 H   0  0  0  0  0  0  0  0  0  0  0  0
    2.3410   -5.8283   -1.8482 H   0  0  0  0  0  0  0  0  0  0  0  0
    4.6852   -5.1042   -1.2884 H   0  0  0  0  0  0  0  0  0  0  0  0
    4.5998   -3.8625   -2.5370 H   0  0  0  0  0  0  0  0  0  0  0  0
    4.3566   -6.8765   -3.0210 H   0  0  0  0  0  0  0  0  0  0  0  0
    5.7783   -5.8734   -3.3631 H   0  0  0  0  0  0  0  0  0  0  0  0
    4.2797   -5.6243   -4.2780 H   0  0  0  0  0  0  0  0  0  0  0  0
   -0.5750   -6.0707   -1.2978 H   0  0  0  0  0  0  0  0  0  0  0  0
   -1.8081   -4.8538   -0.8892 H   0  0  0  0  0  0  0  0  0  0  0  0
   -0.8480   -7.2200    0.6795 H   0  0  0  0  0  0  0  0  0  0  0  0
   -2.3942   -6.3859    0.8093 H   0  0  0  0  0  0  0  0  0  0  0  0
   -0.2930   -6.1483    2.6456 H   0  0  0  0  0  0  0  0  0  0  0  0
   -1.5630   -4.9155    2.4496 H   0  0  0  0  0  0  0  0  0  0  0  0
    3.5564    0.0883    1.6818 H   0  0  0  0  0  0  0  0  0  0  0  0
  1  2  1  0  0  0  0
  1 27  1  0  0  0  0
  1 28  1  0  0  0  0
  1 29  1  0  0  0  0
  2  3  1  0  0  0  0
  2 26  1  0  0  0  0
  2 30  1  0  0  0  0
  3  4  1  0  0  0  0
  3 31  1  0  0  0  0
  3 32  1  0  0  0  0
  4  5  1  0  0  0  0
  4 33  1  0  0  0  0
  5  6  1  0  0  0  0
  5 34  1  0  0  0  0
  5 35  1  0  0  0  0
  6  7  1  0  0  0  0
  6 36  1  0  0  0  0
  6 37  1  0  0  0  0
  7  8  1  0  0  0  0
  7 38  1  0  0  0  0
  7 39  1  0  0  0  0
  8  9  1  0  0  0  0
  8 40  1  0  0  0  0
  8 41  1  0  0  0  0
  9 10  1  0  0  0  0
  9 42  1  0  0  0  0
  9 43  1  0  0  0  0
 10 11  1  0  0  0  0
 10 44  1  0  0  0  0
 10 45  1  0  0  0  0
 11 12  1  0  0  0  0
 11 46  1  0  0  0  0
 11 47  1  0  0  0  0
 12 13  1  0  0  0  0
 12 26  2  3  0  0  0
 13 14  1  0  0  0  0
 13 48  1  0  0  0  0
 14 15  2  0  0  0  0
 14 16  1  0  0  0  0
 16 17  2  0  0  0  0
 16 25  1  0  0  0  0
 17 18  1  0  0  0  0
 17 23  1  0  0  0  0
 18 19  1  0  0  0  0
 18 49  1  0  0  0  0
 19 20  1  0  0  0  0
 19 50  1  0  0  0  0
 19 51  1  0  0  0  0
 20 21  1  0  0  0  0
 20 52  1  0  0  0  0
 20 53  1  0  0  0  0
 21 22  1  0  0  0  0
 21 54  1  0  0  0  0
 21 55  1  0  0  0  0
 22 56  1  0  0  0  0
 22 57  1  0  0  0  0
 22 58  1  0  0  0  0
 23 24  1  0  0  0  0
 23 59  1  0  0  0  0
 23 60  1  0  0  0  0
 24 25  1  0  0  0  0
 24 61  1  0  0  0  0
 24 62  1  0  0  0  0
 25 63  1  0  0  0  0
 25 64  1  0  0  0  0
 26 65  1  0  0  0  0
M  END
$$$$
