
 OpenBabel04232216483D

 35 35  0  0  0  0  0  0  0  0999 V2000
    2.8914   -0.9711    0.8149 C   0  0  0  0  0  0  0  0  0  0  0  0
    4.0124   -0.8031   -0.1785 C   0  0  0  0  0  0  0  0  0  0  0  0
    3.6665   -0.2760   -1.3779 C   0  0  0  0  0  0  0  0  0  0  0  0
    4.6506   -0.1138   -2.3985 C   0  0  0  0  0  0  0  0  0  0  0  0
    5.1341   -1.1972   -3.0328 C   0  0  0  0  0  0  0  0  0  0  0  0
    4.4249   -2.5343   -3.2368 C   0  0  0  0  0  0  0  0  0  0  0  0
    2.8962   -2.6142   -3.3520 C   0  0  0  0  0  0  0  0  0  0  0  0
    2.3355   -1.8579   -4.5431 C   0  0  0  0  0  0  0  0  0  0  0  0
    6.5912   -1.1636   -3.3849 C   0  0  0  0  0  0  0  0  0  0  0  0
    7.3410   -2.2702   -2.6347 C   0  0  0  0  0  0  0  0  0  0  0  0
    7.5052   -2.0630   -1.1157 C   0  0  0  0  0  0  0  0  0  0  0  0
    6.3058   -2.2526   -0.1441 C   0  0  0  0  0  0  0  0  0  0  0  0
    5.4582   -1.0215    0.2875 C   0  0  0  0  0  0  0  0  0  0  0  0
    2.1469   -1.6762    0.4326 H   0  0  0  0  0  0  0  0  0  0  0  0
    2.3956   -0.0130    0.9974 H   0  0  0  0  0  0  0  0  0  0  0  0
    3.2460   -1.3531    1.7798 H   0  0  0  0  0  0  0  0  0  0  0  0
    2.6521   -0.0128   -1.6170 H   0  0  0  0  0  0  0  0  0  0  0  0
    5.2257    0.8130   -2.3294 H   0  0  0  0  0  0  0  0  0  0  0  0
    4.7119   -3.1988   -2.4147 H   0  0  0  0  0  0  0  0  0  0  0  0
    4.8320   -2.9876   -4.1508 H   0  0  0  0  0  0  0  0  0  0  0  0
    2.4049   -2.2833   -2.4337 H   0  0  0  0  0  0  0  0  0  0  0  0
    2.6240   -3.6720   -3.4600 H   0  0  0  0  0  0  0  0  0  0  0  0
    2.5470   -0.7875   -4.4800 H   0  0  0  0  0  0  0  0  0  0  0  0
    1.2485   -1.9845   -4.5850 H   0  0  0  0  0  0  0  0  0  0  0  0
    2.7548   -2.2417   -5.4783 H   0  0  0  0  0  0  0  0  0  0  0  0
    7.0531   -0.2034   -3.1128 H   0  0  0  0  0  0  0  0  0  0  0  0
    6.7190   -1.2688   -4.4685 H   0  0  0  0  0  0  0  0  0  0  0  0
    8.3473   -2.3201   -3.0736 H   0  0  0  0  0  0  0  0  0  0  0  0
    6.9039   -3.2570   -2.8313 H   0  0  0  0  0  0  0  0  0  0  0  0
    8.2368   -2.8346   -0.8267 H   0  0  0  0  0  0  0  0  0  0  0  0
    8.0078   -1.1082   -0.9253 H   0  0  0  0  0  0  0  0  0  0  0  0
    5.6922   -3.1163   -0.4103 H   0  0  0  0  0  0  0  0  0  0  0  0
    6.8087   -2.5518    0.7912 H   0  0  0  0  0  0  0  0  0  0  0  0
    6.0345   -0.1011    0.1135 H   0  0  0  0  0  0  0  0  0  0  0  0
    5.3980   -1.0817    1.3854 H   0  0  0  0  0  0  0  0  0  0  0  0
  1  2  1  0  0  0  0
  1 14  1  0  0  0  0
  1 15  1  0  0  0  0
  1 16  1  0  0  0  0
  2  3  2  3  0  0  0
  2 13  1  0  0  0  0
  3  4  1  0  0  0  0
  3 17  1  0  0  0  0
  4  5  2  3  0  0  0
  4 18  1  0  0  0  0
  5  6  1  0  0  0  0
  5  9  1  0  0  0  0
  6  7  1  0  0  0  0
  6 19  1  0  0  0  0
  6 20  1  0  0  0  0
  7  8  1  0  0  0  0
  7 21  1  0  0  0  0
  7 22  1  0  0  0  0
  8 23  1  0  0  0  0
  8 24  1  0  0  0  0
  8 25  1  0  0  0  0
  9 10  1  0  0  0  0
  9 26  1  0  0  0  0
  9 27  1  0  0  0  0
 10 11  1  0  0  0  0
 10 28  1  0  0  0  0
 10 29  1  0  0  0  0
 11 12  1  0  0  0  0
 11 30  1  0  0  0  0
 11 31  1  0  0  0  0
 12 13  1  0  0  0  0
 12 32  1  0  0  0  0
 12 33  1  0  0  0  0
 13 34  1  0  0  0  0
 13 35  1  0  0  0  0
M  END
$$$$
