
 OpenBabel04232216533D

107106  0  0  0  0  0  0  0  0999 V2000
    0.8774   -0.2123    0.0420 C   0  0  0  0  0  0  0  0  0  0  0  0
    2.3902   -0.1906    0.0207 C   0  0  0  0  0  0  0  0  0  0  0  0
    2.9213    1.0219   -0.7160 C   0  0  0  0  0  0  0  0  0  0  0  0
    4.4389    1.0274   -0.6999 C   0  0  0  0  0  0  0  0  0  0  0  0
    4.9125    2.2460   -1.4583 C   0  0  0  0  0  0  0  0  0  0  0  0
    6.4354    2.2883   -1.4588 C   0  0  0  0  0  0  0  0  0  0  0  0
    6.8712    3.5048   -2.2317 C   0  0  0  0  0  0  0  0  0  0  0  0
    8.2773    3.4742   -2.2415 O   0  0  0  0  0  0  0  0  0  0  0  0
    8.7617    4.6135   -2.9040 C   0  0  0  0  0  0  0  0  0  0  0  0
   10.2530    4.4758   -2.8672 C   0  0  0  0  0  0  0  0  0  0  0  0
   10.8131    5.6530   -3.6009 C   0  0  0  0  0  0  0  0  0  0  0  0
   12.2580    5.5788   -3.5461 C   0  0  0  0  0  0  0  0  0  0  0  0
   12.6842    6.7046   -4.2882 O   0  0  0  0  0  0  0  0  0  0  0  0
   14.0800    6.8886   -4.2980 C   0  0  0  0  0  0  0  0  0  0  0  0
   14.2922    8.1157   -4.9002 O   0  0  0  0  0  0  0  0  0  0  0  0
   15.6891    8.3619   -4.8145 O   0  0  0  0  0  0  0  0  0  0  0  0
   16.1203    8.9616   -6.0529 O   0  0  0  0  0  0  0  0  0  0  0  0
   17.5457    8.9586   -6.1299 O   0  0  0  0  0  0  0  0  0  0  0  0
   18.0187   10.3063   -5.9947 O   0  0  0  0  0  0  0  0  0  0  0  0
   19.4473   10.3189   -6.0188 O   0  0  0  0  0  0  0  0  0  0  0  0
   19.9040   10.8516   -7.2716 O   0  0  0  0  0  0  0  0  0  0  0  0
   21.3279   10.9927   -7.2305 O   0  0  0  0  0  0  0  0  0  0  0  0
   21.6852   12.3824   -7.2582 O   0  0  0  0  0  0  0  0  0  0  0  0
   23.1035   12.4990   -7.4255 O   0  0  0  0  0  0  0  0  0  0  0  0
   23.3922   13.1040   -8.6934 O   0  0  0  0  0  0  0  0  0  0  0  0
   24.8069   13.2192   -8.8549 O   0  0  0  0  0  0  0  0  0  0  0  0
   25.1892   14.5979   -8.7798 O   0  0  0  0  0  0  0  0  0  0  0  0
   26.6083   14.6631   -8.6917 O   0  0  0  0  0  0  0  0  0  0  0  0
   27.1796   15.2684   -9.8495 O   0  0  0  0  0  0  0  0  0  0  0  0
   28.5473   15.4879   -9.5474 O   0  0  0  0  0  0  0  0  0  0  0  0
   29.0518   16.6723  -10.1463 O   0  0  0  0  0  0  0  0  0  0  0  0
   30.2358   16.3180  -10.8602 O   0  0  0  0  0  0  0  0  0  0  0  0
   30.8215   17.4811  -11.4518 O   0  0  0  0  0  0  0  0  0  0  0  0
   31.8579   17.9813  -10.5930 O   0  0  0  0  0  0  0  0  0  0  0  0
   32.5737   19.0124  -11.2854 O   0  0  0  0  0  0  0  0  0  0  0  0
   33.5600   18.4212  -12.1554 O   0  0  0  0  0  0  0  0  0  0  0  0
   34.2918   19.4600  -12.8254 O   0  0  0  0  0  0  0  0  0  0  0  0
   35.3064   19.9766  -11.9407 O   0  0  0  0  0  0  0  0  0  0  0  0
   36.0122   21.0513  -12.5792 O   0  0  0  0  0  0  0  0  0  0  0  0
   37.1349   20.5119  -13.2979 O   0  0  0  0  0  0  0  0  0  0  0  0
   37.7959   21.5468  -14.0324 O   0  0  0  0  0  0  0  0  0  0  0  0
   38.9894   21.9184  -13.3297 O   0  0  0  0  0  0  0  0  0  0  0  0
   39.5089   23.1249  -13.8702 O   0  0  0  0  0  0  0  0  0  0  0  0
   40.6488   22.8377  -14.6856 O   0  0  0  0  0  0  0  0  0  0  0  0
   41.0282   24.0619  -15.2940 O   0  0  0  0  0  0  0  0  0  0  0  0
   42.3454   24.4240  -14.8862 O   0  0  0  0  0  0  0  0  0  0  0  0
   42.9935   24.8829  -16.0777 O   0  0  0  0  0  0  0  0  0  0  0  0
   44.3877   24.8531  -15.8566 O   0  0  0  0  0  0  0  0  0  0  0  0
   44.8857   26.1776  -15.8615 O   0  0  0  0  0  0  0  0  0  0  0  0
   46.2468   26.0432  -16.1643 O   0  0  0  0  0  0  0  0  0  0  0  0
   46.6757   26.9113  -17.1863 O   0  0  0  0  0  0  0  0  0  0  0  0
   47.9766   27.2833  -16.7777 O   0  0  0  0  0  0  0  0  0  0  0  0
   48.4387   28.4441  -17.4277 O   0  0  0  0  0  0  0  0  0  0  0  0
   49.6554   28.0744  -18.0691 O   0  0  0  0  0  0  0  0  0  0  0  0
   50.2208   29.1992  -18.7203 O   0  0  0  0  0  0  0  0  0  0  0  0
   51.3851   29.6126  -17.9998 O   0  0  0  0  0  0  0  0  0  0  0  0
   52.0117   30.6830  -18.7070 O   0  0  0  0  0  0  0  0  0  0  0  0
   53.1502   30.1855  -19.4274 O   0  0  0  0  0  0  0  0  0  0  0  0
   53.8126   31.2789  -20.0772 O   0  0  0  0  0  0  0  0  0  0  0  0
   54.9497   31.6951  -19.2981 O   0  0  0  0  0  0  0  0  0  0  0  0
   55.6224   32.7736  -19.9687 O   0  0  0  0  0  0  0  0  0  0  0  0
   56.7152   32.2557  -20.7530 O   0  0  0  0  0  0  0  0  0  0  0  0
   57.4033   33.3375  -21.4040 O   0  0  0  0  0  0  0  0  0  0  0  0
   58.5188   33.7544  -20.5940 O   0  0  0  0  0  0  0  0  0  0  0  0
   59.1461   34.9046  -21.1751 O   0  0  0  0  0  0  0  0  0  0  0  0
   60.3168   34.5041  -21.9073 O   0  0  0  0  0  0  0  0  0  0  0  0
   60.7785   35.6173  -22.6729 O   0  0  0  0  0  0  0  0  0  0  0  0
   62.0757   36.0469  -22.2413 O   0  0  0  0  0  0  0  0  0  0  0  0
   62.6467   36.7829  -23.3258 O   0  0  0  0  0  0  0  0  0  0  0  0
   64.0715   36.7482  -23.3047 O   0  0  0  0  0  0  0  0  0  0  0  0
   64.5441   38.0953  -23.4503 O   0  0  0  0  0  0  0  0  0  0  0  0
   65.9690   38.1130  -23.4778 O   0  0  0  0  0  0  0  0  0  0  0  0
   66.4415   38.8601  -24.6115 O   0  0  0  0  0  0  0  0  0  0  0  0
   67.8675   38.9508  -24.5167 O   0  0  0  0  0  0  0  0  0  0  0  0
   68.3447   40.2510  -24.8956 O   0  0  0  0  0  0  0  0  0  0  0  0
   69.6973   40.1036  -25.3772 O   0  0  0  0  0  0  0  0  0  0  0  0
   70.1188   41.2762  -26.0986 O   0  0  0  0  0  0  0  0  0  0  0  0
   71.3827   41.7471  -25.5774 O   0  0  0  0  0  0  0  0  0  0  0  0
   72.0132   42.6120  -26.5516 O   0  0  0  0  0  0  0  0  0  0  0  0
   73.4444   42.4011  -26.5862 O   0  0  0  0  0  0  0  0  0  0  0  0
   73.7672   41.2039  -27.3332 O   0  0  0  0  0  0  0  0  0  0  0  0
    0.5475   -1.0961    0.5939 H   0  0  0  0  0  0  0  0  0  0  0  0
    0.4579   -0.2614   -0.9679 H   0  0  0  0  0  0  0  0  0  0  0  0
    0.4772    0.6765    0.5453 H   0  0  0  0  0  0  0  0  0  0  0  0
    2.7597   -1.1071   -0.4570 H   0  0  0  0  0  0  0  0  0  0  0  0
    2.7656   -0.1870    1.0500 H   0  0  0  0  0  0  0  0  0  0  0  0
    2.5438    1.9376   -0.2462 H   0  0  0  0  0  0  0  0  0  0  0  0
    2.5613    1.0235   -1.7546 H   0  0  0  0  0  0  0  0  0  0  0  0
    4.8313    0.1147   -1.1671 H   0  0  0  0  0  0  0  0  0  0  0  0
    4.8164    1.0513    0.3284 H   0  0  0  0  0  0  0  0  0  0  0  0
    4.5414    3.1609   -0.9849 H   0  0  0  0  0  0  0  0  0  0  0  0
    4.5491    2.2227   -2.4862 H   0  0  0  0  0  0  0  0  0  0  0  0
    6.8310    1.3775   -1.9393 H   0  0  0  0  0  0  0  0  0  0  0  0
    6.8434    2.3048   -0.4552 H   0  0  0  0  0  0  0  0  0  0  0  0
    6.5300    4.4184   -1.7354 H   0  0  0  0  0  0  0  0  0  0  0  0
    6.5006    3.4826   -3.2528 H   0  0  0  0  0  0  0  0  0  0  0  0
    8.4488    5.4981   -2.3885 H   0  0  0  0  0  0  0  0  0  0  0  0
    8.3887    4.6587   -3.9341 H   0  0  0  0  0  0  0  0  0  0  0  0
   10.5707    3.5297   -3.3275 H   0  0  0  0  0  0  0  0  0  0  0  0
   10.5991    4.4444   -1.8320 H   0  0  0  0  0  0  0  0  0  0  0  0
   10.4621    6.5966   -3.1610 H   0  0  0  0  0  0  0  0  0  0  0  0
   10.4719    5.6730   -4.6410 H   0  0  0  0  0  0  0  0  0  0  0  0
   12.6892    4.6747   -3.9906 H   0  0  0  0  0  0  0  0  0  0  0  0
   12.6588    5.6786   -2.5020 H   0  0  0  0  0  0  0  0  0  0  0  0
   14.5350    6.0592   -4.8829 H   0  0  0  0  0  0  0  0  0  0  0  0
   14.4708    6.8781   -3.2640 H   0  0  0  0  0  0  0  0  0  0  0  0
   74.6726   41.1225  -26.9886 H   0  0  0  0  0  0  0  0  0  0  0  0
  1  2  1  0  0  0  0
  1 82  1  0  0  0  0
  1 83  1  0  0  0  0
  1 84  1  0  0  0  0
  2  3  1  0  0  0  0
  2 85  1  0  0  0  0
  2 86  1  0  0  0  0
  3  4  1  0  0  0  0
  3 87  1  0  0  0  0
  3 88  1  0  0  0  0
  4  5  1  0  0  0  0
  4 89  1  0  0  0  0
  4 90  1  0  0  0  0
  5  6  1  0  0  0  0
  5 91  1  0  0  0  0
  5 92  1  0  0  0  0
  6  7  1  0  0  0  0
  6 93  1  0  0  0  0
  6 94  1  0  0  0  0
  7  8  1  0  0  0  0
  7 95  1  0  0  0  0
  7 96  1  0  0  0  0
  8  9  1  0  0  0  0
  9 10  1  0  0  0  0
  9 97  1  0  0  0  0
  9 98  1  0  0  0  0
 10 11  1  0  0  0  0
 10 99  1  0  0  0  0
 10100  1  0  0  0  0
 11 12  1  0  0  0  0
 11101  1  0  0  0  0
 11102  1  0  0  0  0
 12 13  1  0  0  0  0
 12103  1  0  0  0  0
 12104  1  0  0  0  0
 13 14  1  0  0  0  0
 14 15  1  0  0  0  0
 14105  1  0  0  0  0
 14106  1  0  0  0  0
 15 16  1  0  0  0  0
 16 17  1  0  0  0  0
 17 18  1  0  0  0  0
 18 19  1  0  0  0  0
 19 20  1  0  0  0  0
 20 21  1  0  0  0  0
 21 22  1  0  0  0  0
 22 23  1  0  0  0  0
 23 24  1  0  0  0  0
 24 25  1  0  0  0  0
 25 26  1  0  0  0  0
 26 27  1  0  0  0  0
 27 28  1  0  0  0  0
 28 29  1  0  0  0  0
 29 30  1  0  0  0  0
 30 31  1  0  0  0  0
 31 32  1  0  0  0  0
 32 33  1  0  0  0  0
 33 34  1  0  0  0  0
 34 35  1  0  0  0  0
 35 36  1  0  0  0  0
 36 37  1  0  0  0  0
 37 38  1  0  0  0  0
 38 39  1  0  0  0  0
 39 40  1  0  0  0  0
 40 41  1  0  0  0  0
 41 42  1  0  0  0  0
 42 43  1  0  0  0  0
 43 44  1  0  0  0  0
 44 45  1  0  0  0  0
 45 46  1  0  0  0  0
 46 47  1  0  0  0  0
 47 48  1  0  0  0  0
 48 49  1  0  0  0  0
 49 50  1  0  0  0  0
 50 51  1  0  0  0  0
 51 52  1  0  0  0  0
 52 53  1  0  0  0  0
 53 54  1  0  0  0  0
 54 55  1  0  0  0  0
 55 56  1  0  0  0  0
 56 57  1  0  0  0  0
 57 58  1  0  0  0  0
 58 59  1  0  0  0  0
 59 60  1  0  0  0  0
 60 61  1  0  0  0  0
 61 62  1  0  0  0  0
 62 63  1  0  0  0  0
 63 64  1  0  0  0  0
 64 65  1  0  0  0  0
 65 66  1  0  0  0  0
 66 67  1  0  0  0  0
 67 68  1  0  0  0  0
 68 69  1  0  0  0  0
 69 70  1  0  0  0  0
 70 71  1  0  0  0  0
 71 72  1  0  0  0  0
 72 73  1  0  0  0  0
 73 74  1  0  0  0  0
 74 75  1  0  0  0  0
 75 76  1  0  0  0  0
 76 77  1  0  0  0  0
 77 78  1  0  0  0  0
 78 79  1  0  0  0  0
 79 80  1  0  0  0  0
 80 81  1  0  0  0  0
 81107  1  0  0  0  0
M  END
$$$$
