
 OpenBabel04232216573D

131130  0  0  0  0  0  0  0  0999 V2000
    9.1882  -21.8615   29.2477 C   0  0  0  0  0  0  0  0  0  0  0  0
   10.9734  -21.5648   29.2890 S   0  0  0  0  0  0  0  0  0  0  0  0
   11.1094  -19.8445   28.6752 C   0  0  0  0  0  0  0  0  0  0  0  0
   12.5932  -19.4793   28.6685 C   0  0  0  0  0  0  0  0  0  0  0  0
   12.7912  -18.0443   28.1637 C   0  0  0  0  0  0  0  0  0  0  0  0
   14.2941  -17.6942   28.1642 C   0  0  0  0  0  0  0  0  0  0  0  0
   14.4851  -16.2495   27.6573 C   0  0  0  0  0  0  0  0  0  0  0  0
   15.9776  -15.8941   27.6530 C   0  0  0  0  0  0  0  0  0  0  0  0
   16.1849  -14.4676   27.1539 C   0  0  0  0  0  0  0  0  0  0  0  0
   17.9803  -14.1434   27.1884 S   0  0  0  0  0  0  0  0  0  0  0  0
   18.1075  -12.4285   26.5760 C   0  0  0  0  0  0  0  0  0  0  0  0
   19.5938  -12.0634   26.5677 C   0  0  0  0  0  0  0  0  0  0  0  0
   19.7993  -10.6346   26.0642 C   0  0  0  0  0  0  0  0  0  0  0  0
   21.2929  -10.2629   26.0640 C   0  0  0  0  0  0  0  0  0  0  0  0
   21.5219   -8.8671   25.5496 C   0  0  0  0  0  0  0  0  0  0  0  0
   23.3145   -8.4763   25.6192 S   0  0  0  0  0  0  0  0  0  0  0  0
   24.0204   -9.7012   24.4378 C   0  0  0  0  0  0  0  0  0  0  0  0
   23.2754   -9.4939   22.7463 S   0  0  0  0  0  0  0  0  0  0  0  0
   23.7030   -7.7280   22.3193 C   0  0  0  0  0  0  0  0  0  0  0  0
   22.8817   -7.3945   20.6783 S   0  0  0  0  0  0  0  0  0  0  0  0
   23.4331   -5.6728   20.2449 C   0  0  0  0  0  0  0  0  0  0  0  0
   25.2455   -5.6746   20.1802 S   0  0  0  0  0  0  0  0  0  0  0  0
   25.6879   -3.9755   19.6927 C   0  0  0  0  0  0  0  0  0  0  0  0
   27.5325   -3.8462   19.6456 S   0  0  0  0  0  0  0  0  0  0  0  0
   28.0136   -5.0964   18.3928 C   0  0  0  0  0  0  0  0  0  0  0  0
   29.8422   -5.1460   18.2152 S   0  0  0  0  0  0  0  0  0  0  0  0
   30.4130   -5.5557   19.9051 C   0  0  0  0  0  0  0  0  0  0  0  0
   32.2549   -5.6182   19.9595 S   0  0  0  0  0  0  0  0  0  0  0  0
   32.7411   -3.9224   19.4549 C   0  0  0  0  0  0  0  0  0  0  0  0
   34.5764   -3.7818   19.4048 S   0  0  0  0  0  0  0  0  0  0  0  0
   35.0676   -5.0391   18.1632 C   0  0  0  0  0  0  0  0  0  0  0  0
   36.8982   -5.0925   17.9937 S   0  0  0  0  0  0  0  0  0  0  0  0
   37.4683   -5.5135   19.6843 C   0  0  0  0  0  0  0  0  0  0  0  0
   39.3096   -5.5738   19.7414 S   0  0  0  0  0  0  0  0  0  0  0  0
   39.8111   -3.8781   19.2423 C   0  0  0  0  0  0  0  0  0  0  0  0
   41.6662   -3.7652   19.1805 S   0  0  0  0  0  0  0  0  0  0  0  0
   42.1346   -5.0364   17.8975 C   0  0  0  0  0  0  0  0  0  0  0  0
   43.9743   -5.0433   17.7621 S   0  0  0  0  0  0  0  0  0  0  0  0
   44.4731   -6.4093   16.3076 S   0  0  0  0  0  0  0  0  0  0  0  0
   43.6613   -5.7631   14.5205 S   0  0  0  0  0  0  0  0  0  0  0  0
   44.4650   -3.9179   14.0222 S   0  0  0  0  0  0  0  0  0  0  0  0
   43.5811   -3.2912   12.2235 S   0  0  0  0  0  0  0  0  0  0  0  0
   44.3447   -1.3887   11.7475 S   0  0  0  0  0  0  0  0  0  0  0  0
   43.4890   -0.7514    9.9303 S   0  0  0  0  0  0  0  0  0  0  0  0
   44.2538    1.1557    9.4539 S   0  0  0  0  0  0  0  0  0  0  0  0
   43.3971    1.7947    7.6354 S   0  0  0  0  0  0  0  0  0  0  0  0
   44.1620    3.7019    7.1586 S   0  0  0  0  0  0  0  0  0  0  0  0
   43.3053    4.3409    5.3401 S   0  0  0  0  0  0  0  0  0  0  0  0
   44.0702    6.2480    4.8633 S   0  0  0  0  0  0  0  0  0  0  0  0
   43.2134    6.8870    3.0447 S   0  0  0  0  0  0  0  0  0  0  0  0
   43.9783    8.7942    2.5680 S   0  0  0  0  0  0  0  0  0  0  0  0
   43.1216    9.4332    0.7494 S   0  0  0  0  0  0  0  0  0  0  0  0
   43.8865   11.3404    0.2726 S   0  0  0  0  0  0  0  0  0  0  0  0
   43.0297   11.9794   -1.5459 S   0  0  0  0  0  0  0  0  0  0  0  0
   43.7946   13.8865   -2.0227 S   0  0  0  0  0  0  0  0  0  0  0  0
   42.9379   14.5255   -3.8413 S   0  0  0  0  0  0  0  0  0  0  0  0
   43.7028   16.4327   -4.3180 S   0  0  0  0  0  0  0  0  0  0  0  0
   42.8460   17.0717   -6.1366 S   0  0  0  0  0  0  0  0  0  0  0  0
   43.6109   18.9789   -6.6134 S   0  0  0  0  0  0  0  0  0  0  0  0
   42.7542   19.6179   -8.4320 S   0  0  0  0  0  0  0  0  0  0  0  0
   43.5191   21.5250   -8.9087 S   0  0  0  0  0  0  0  0  0  0  0  0
   42.6623   22.1640  -10.7273 S   0  0  0  0  0  0  0  0  0  0  0  0
   43.4272   24.0712  -11.2040 S   0  0  0  0  0  0  0  0  0  0  0  0
   42.5705   24.7102  -13.0226 S   0  0  0  0  0  0  0  0  0  0  0  0
   43.3354   26.6174  -13.4994 S   0  0  0  0  0  0  0  0  0  0  0  0
   42.4786   27.2564  -15.3180 S   0  0  0  0  0  0  0  0  0  0  0  0
   43.2435   29.1635  -15.7947 S   0  0  0  0  0  0  0  0  0  0  0  0
   42.3868   29.8025  -17.6133 S   0  0  0  0  0  0  0  0  0  0  0  0
   43.1517   31.7097  -18.0900 S   0  0  0  0  0  0  0  0  0  0  0  0
   42.2949   32.3487  -19.9086 S   0  0  0  0  0  0  0  0  0  0  0  0
   43.0598   34.2559  -20.3854 S   0  0  0  0  0  0  0  0  0  0  0  0
   42.2031   34.8949  -22.2040 S   0  0  0  0  0  0  0  0  0  0  0  0
   42.9680   36.8020  -22.6807 S   0  0  0  0  0  0  0  0  0  0  0  0
   42.1113   37.4410  -24.4992 S   0  0  0  0  0  0  0  0  0  0  0  0
   42.8763   39.3477  -24.9759 S   0  0  0  0  0  0  0  0  0  0  0  0
   42.0193   39.9857  -26.7923 S   0  0  0  0  0  0  0  0  0  0  0  0
   42.7844   41.8892  -27.2667 S   0  0  0  0  0  0  0  0  0  0  0  0
   41.9408   42.4992  -29.0878 S   0  0  0  0  0  0  0  0  0  0  0  0
   42.6307   44.4160  -29.5268 S   0  0  0  0  0  0  0  0  0  0  0  0
   41.8148   44.9917  -31.3534 S   0  0  0  0  0  0  0  0  0  0  0  0
   39.7822   45.1557  -31.0634 S   0  0  0  0  0  0  0  0  0  0  0  0
    9.0173  -22.8868   29.6060 H   0  0  0  0  0  0  0  0  0  0  0  0
    8.7843  -21.7971   28.2329 H   0  0  0  0  0  0  0  0  0  0  0  0
    8.6439  -21.1859   29.9143 H   0  0  0  0  0  0  0  0  0  0  0  0
   10.5592  -19.1570   29.3300 H   0  0  0  0  0  0  0  0  0  0  0  0
   10.7013  -19.7643   27.6596 H   0  0  0  0  0  0  0  0  0  0  0  0
   13.1536  -20.1620   28.0204 H   0  0  0  0  0  0  0  0  0  0  0  0
   13.0127  -19.5596   29.6774 H   0  0  0  0  0  0  0  0  0  0  0  0
   12.2609  -17.3509   28.8067 H   0  0  0  0  0  0  0  0  0  0  0  0
   12.4013  -17.9508   27.1563 H   0  0  0  0  0  0  0  0  0  0  0  0
   14.8287  -18.3802   27.5206 H   0  0  0  0  0  0  0  0  0  0  0  0
   14.6894  -17.7840   29.1673 H   0  0  0  0  0  0  0  0  0  0  0  0
   13.9473  -15.5671   28.3052 H   0  0  0  0  0  0  0  0  0  0  0  0
   14.0846  -16.1644   26.6539 H   0  0  0  0  0  0  0  0  0  0  0  0
   16.5083  -16.6075   27.0118 H   0  0  0  0  0  0  0  0  0  0  0  0
   16.3703  -16.0077   28.6699 H   0  0  0  0  0  0  0  0  0  0  0  0
   15.6533  -13.7607   27.8053 H   0  0  0  0  0  0  0  0  0  0  0  0
   15.7948  -14.3662   26.1323 H   0  0  0  0  0  0  0  0  0  0  0  0
   17.5587  -11.7453   27.2333 H   0  0  0  0  0  0  0  0  0  0  0  0
   17.6980  -12.3524   25.5629 H   0  0  0  0  0  0  0  0  0  0  0  0
   20.1503  -12.7529   25.9264 H   0  0  0  0  0  0  0  0  0  0  0  0
   20.0118  -12.1517   27.5740 H   0  0  0  0  0  0  0  0  0  0  0  0
   19.2686   -9.9385   26.7036 H   0  0  0  0  0  0  0  0  0  0  0  0
   19.4098  -10.5405   25.0565 H   0  0  0  0  0  0  0  0  0  0  0  0
   21.8118  -10.9951   25.4232 H   0  0  0  0  0  0  0  0  0  0  0  0
   21.6946  -10.3846   27.0635 H   0  0  0  0  0  0  0  0  0  0  0  0
   20.9793   -8.1338   26.1993 H   0  0  0  0  0  0  0  0  0  0  0  0
   21.1130   -8.7307   24.5499 H   0  0  0  0  0  0  0  0  0  0  0  0
   23.8008  -10.7208   24.7757 H   0  0  0  0  0  0  0  0  0  0  0  0
   25.0824   -9.6163   24.3694 H   0  0  0  0  0  0  0  0  0  0  0  0
   24.7903   -7.6523   22.2582 H   0  0  0  0  0  0  0  0  0  0  0  0
   23.3033   -7.0258   23.0508 H   0  0  0  0  0  0  0  0  0  0  0  0
   23.0445   -4.9884   20.9976 H   0  0  0  0  0  0  0  0  0  0  0  0
   22.9878   -5.4333   19.2640 H   0  0  0  0  0  0  0  0  0  0  0  0
   25.3531   -3.2444   20.4540 H   0  0  0  0  0  0  0  0  0  0  0  0
   25.2891   -3.6818   18.7197 H   0  0  0  0  0  0  0  0  0  0  0  0
   27.6112   -4.8346   17.3974 H   0  0  0  0  0  0  0  0  0  0  0  0
   27.6865   -6.1042   18.6277 H   0  0  0  0  0  0  0  0  0  0  0  0
   30.0767   -6.5739   20.1933 H   0  0  0  0  0  0  0  0  0  0  0  0
   30.0910   -4.8553   20.6845 H   0  0  0  0  0  0  0  0  0  0  0  0
   32.4026   -3.1780   20.2037 H   0  0  0  0  0  0  0  0  0  0  0  0
   32.3720   -3.6202   18.4774 H   0  0  0  0  0  0  0  0  0  0  0  0
   34.6743   -4.7775   17.1629 H   0  0  0  0  0  0  0  0  0  0  0  0
   34.7379   -6.0460   18.3950 H   0  0  0  0  0  0  0  0  0  0  0  0
   37.1217   -6.5255   19.9722 H   0  0  0  0  0  0  0  0  0  0  0  0
   37.1475   -4.8171   20.4518 H   0  0  0  0  0  0  0  0  0  0  0  0
   39.4598   -3.1340   19.9866 H   0  0  0  0  0  0  0  0  0  0  0  0
   39.4360   -3.5726   18.2649 H   0  0  0  0  0  0  0  0  0  0  0  0
   41.7189   -4.7293   16.9307 H   0  0  0  0  0  0  0  0  0  0  0  0
   41.7813   -6.0265   18.1800 H   0  0  0  0  0  0  0  0  0  0  0  0
   39.3226   45.5450  -32.2723 H   0  0  0  0  0  0  0  0  0  0  0  0
  1  2  1  0  0  0  0
  1 82  1  0  0  0  0
  1 83  1  0  0  0  0
  1 84  1  0  0  0  0
  2  3  1  0  0  0  0
  3  4  1  0  0  0  0
  3 85  1  0  0  0  0
  3 86  1  0  0  0  0
  4  5  1  0  0  0  0
  4 87  1  0  0  0  0
  4 88  1  0  0  0  0
  5  6  1  0  0  0  0
  5 89  1  0  0  0  0
  5 90  1  0  0  0  0
  6  7  1  0  0  0  0
  6 91  1  0  0  0  0
  6 92  1  0  0  0  0
  7  8  1  0  0  0  0
  7 93  1  0  0  0  0
  7 94  1  0  0  0  0
  8  9  1  0  0  0  0
  8 95  1  0  0  0  0
  8 96  1  0  0  0  0
  9 10  1  0  0  0  0
  9 97  1  0  0  0  0
  9 98  1  0  0  0  0
 10 11  1  0  0  0  0
 11 12  1  0  0  0  0
 11 99  1  0  0  0  0
 11100  1  0  0  0  0
 12 13  1  0  0  0  0
 12101  1  0  0  0  0
 12102  1  0  0  0  0
 13 14  1  0  0  0  0
 13103  1  0  0  0  0
 13104  1  0  0  0  0
 14 15  1  0  0  0  0
 14105  1  0  0  0  0
 14106  1  0  0  0  0
 15 16  1  0  0  0  0
 15107  1  0  0  0  0
 15108  1  0  0  0  0
 16 17  1  0  0  0  0
 17 18  1  0  0  0  0
 17109  1  0  0  0  0
 17110  1  0  0  0  0
 18 19  1  0  0  0  0
 19 20  1  0  0  0  0
 19111  1  0  0  0  0
 19112  1  0  0  0  0
 20 21  1  0  0  0  0
 21 22  1  0  0  0  0
 21113  1  0  0  0  0
 21114  1  0  0  0  0
 22 23  1  0  0  0  0
 23 24  1  0  0  0  0
 23115  1  0  0  0  0
 23116  1  0  0  0  0
 24 25  1  0  0  0  0
 25 26  1  0  0  0  0
 25117  1  0  0  0  0
 25118  1  0  0  0  0
 26 27  1  0  0  0  0
 27 28  1  0  0  0  0
 27119  1  0  0  0  0
 27120  1  0  0  0  0
 28 29  1  0  0  0  0
 29 30  1  0  0  0  0
 29121  1  0  0  0  0
 29122  1  0  0  0  0
 30 31  1  0  0  0  0
 31 32  1  0  0  0  0
 31123  1  0  0  0  0
 31124  1  0  0  0  0
 32 33  1  0  0  0  0
 33 34  1  0  0  0  0
 33125  1  0  0  0  0
 33126  1  0  0  0  0
 34 35  1  0  0  0  0
 35 36  1  0  0  0  0
 35127  1  0  0  0  0
 35128  1  0  0  0  0
 36 37  1  0  0  0  0
 37 38  1  0  0  0  0
 37129  1  0  0  0  0
 37130  1  0  0  0  0
 38 39  1  0  0  0  0
 39 40  1  0  0  0  0
 40 41  1  0  0  0  0
 41 42  1  0  0  0  0
 42 43  1  0  0  0  0
 43 44  1  0  0  0  0
 44 45  1  0  0  0  0
 45 46  1  0  0  0  0
 46 47  1  0  0  0  0
 47 48  1  0  0  0  0
 48 49  1  0  0  0  0
 49 50  1  0  0  0  0
 50 51  1  0  0  0  0
 51 52  1  0  0  0  0
 52 53  1  0  0  0  0
 53 54  1  0  0  0  0
 54 55  1  0  0  0  0
 55 56  1  0  0  0  0
 56 57  1  0  0  0  0
 57 58  1  0  0  0  0
 58 59  1  0  0  0  0
 59 60  1  0  0  0  0
 60 61  1  0  0  0  0
 61 62  1  0  0  0  0
 62 63  1  0  0  0  0
 63 64  1  0  0  0  0
 64 65  1  0  0  0  0
 65 66  1  0  0  0  0
 66 67  1  0  0  0  0
 67 68  1  0  0  0  0
 68 69  1  0  0  0  0
 69 70  1  0  0  0  0
 70 71  1  0  0  0  0
 71 72  1  0  0  0  0
 72 73  1  0  0  0  0
 73 74  1  0  0  0  0
 74 75  1  0  0  0  0
 75 76  1  0  0  0  0
 76 77  1  0  0  0  0
 77 78  1  0  0  0  0
 78 79  1  0  0  0  0
 79 80  1  0  0  0  0
 80 81  1  0  0  0  0
 81131  1  0  0  0  0
M  END
$$$$
