
 OpenBabel04232217033D

 58 57  0  0  0  0  0  0  0  0999 V2000
   13.9166   -1.4903   -9.8941 S   0  0  0  0  0  0  0  0  0  0  0  0
   13.2053   -2.6427   -8.9440 N   0  0  0  0  0  0  0  0  0  0  0  0
   11.5586   -2.6031   -9.1509 S   0  0  0  0  0  0  0  0  0  0  0  0
   10.9921   -3.8072   -8.1758 N   0  0  0  0  0  0  0  0  0  0  0  0
   11.2751   -3.5172   -6.8103 N   0  0  0  0  0  0  0  0  0  0  0  0
   10.7532   -4.5110   -5.9326 N   0  0  0  0  0  0  0  0  0  0  0  0
   11.3277   -5.8073   -6.1025 N   0  0  0  0  0  0  0  0  0  0  0  0
   12.7512   -5.8008   -5.9881 N   0  0  0  0  0  0  0  0  0  0  0  0
   13.1583   -5.4719   -4.6546 N   0  0  0  0  0  0  0  0  0  0  0  0
   12.7109   -6.4579   -3.7122 N   0  0  0  0  0  0  0  0  0  0  0  0
   13.2677   -7.7468   -4.0046 N   0  0  0  0  0  0  0  0  0  0  0  0
   14.7002   -7.7100   -3.9275 N   0  0  0  0  0  0  0  0  0  0  0  0
   15.1206   -7.3346   -2.6043 N   0  0  0  0  0  0  0  0  0  0  0  0
   14.6156   -8.2718   -1.6348 N   0  0  0  0  0  0  0  0  0  0  0  0
   15.0831   -9.6010   -1.9338 N   0  0  0  0  0  0  0  0  0  0  0  0
   16.5217   -9.6433   -1.8962 N   0  0  0  0  0  0  0  0  0  0  0  0
   16.9971   -9.2541   -0.5948 N   0  0  0  0  0  0  0  0  0  0  0  0
   16.4854  -10.1466    0.4089 N   0  0  0  0  0  0  0  0  0  0  0  0
   17.0079  -11.4764    0.2392 N   0  0  0  0  0  0  0  0  0  0  0  0
   18.4505  -11.4419    0.2322 N   0  0  0  0  0  0  0  0  0  0  0  0
   18.9179  -11.0424    1.5605 C   0  0  0  0  0  0  0  0  0  0  0  0
   20.4345  -10.9542    1.5431 C   0  0  0  0  0  0  0  0  0  0  0  0
   20.9196  -10.4568    2.8992 C   0  0  0  0  0  0  0  0  0  0  0  0
   22.4389  -10.4062    2.9468 C   0  0  0  0  0  0  0  0  0  0  0  0
   22.9151   -9.9398    4.3198 C   0  0  0  0  0  0  0  0  0  0  0  0
   24.4334   -9.9025    4.3738 C   0  0  0  0  0  0  0  0  0  0  0  0
   15.2059   -1.7396   -9.6149 H   0  0  0  0  0  0  0  0  0  0  0  0
   13.4208   -2.4788   -7.9552 H   0  0  0  0  0  0  0  0  0  0  0  0
   11.4437   -4.6864   -8.4495 H   0  0  0  0  0  0  0  0  0  0  0  0
   10.8984   -2.5946   -6.5640 H   0  0  0  0  0  0  0  0  0  0  0  0
    9.7298   -4.5578   -5.9772 H   0  0  0  0  0  0  0  0  0  0  0  0
   11.0333   -6.2467   -6.9782 H   0  0  0  0  0  0  0  0  0  0  0  0
   13.1387   -5.1059   -6.6359 H   0  0  0  0  0  0  0  0  0  0  0  0
   12.7513   -4.5614   -4.4097 H   0  0  0  0  0  0  0  0  0  0  0  0
   11.6878   -6.5169   -3.7524 H   0  0  0  0  0  0  0  0  0  0  0  0
   12.9892   -8.0140   -4.9554 H   0  0  0  0  0  0  0  0  0  0  0  0
   15.0301   -6.9994   -4.5908 H   0  0  0  0  0  0  0  0  0  0  0  0
   14.7148   -6.4107   -2.4081 H   0  0  0  0  0  0  0  0  0  0  0  0
   13.5908   -8.2653   -1.7153 H   0  0  0  0  0  0  0  0  0  0  0  0
   14.7773   -9.8203   -2.8879 H   0  0  0  0  0  0  0  0  0  0  0  0
   16.8606   -8.9597   -2.5856 H   0  0  0  0  0  0  0  0  0  0  0  0
   16.6178   -8.3148   -0.4139 H   0  0  0  0  0  0  0  0  0  0  0  0
   15.4643  -10.1688    0.2989 H   0  0  0  0  0  0  0  0  0  0  0  0
   16.6851  -11.8010   -0.6826 H   0  0  0  0  0  0  0  0  0  0  0  0
   18.7083  -10.6957   -0.4229 H   0  0  0  0  0  0  0  0  0  0  0  0
   18.5860  -11.7649    2.3142 H   0  0  0  0  0  0  0  0  0  0  0  0
   18.5257  -10.0568    1.8438 H   0  0  0  0  0  0  0  0  0  0  0  0
   20.7709  -10.2637    0.7576 H   0  0  0  0  0  0  0  0  0  0  0  0
   20.8640  -11.9382    1.3193 H   0  0  0  0  0  0  0  0  0  0  0  0
   20.5415  -11.1180    3.6883 H   0  0  0  0  0  0  0  0  0  0  0  0
   20.5090   -9.4571    3.0923 H   0  0  0  0  0  0  0  0  0  0  0  0
   22.8092   -9.7278    2.1689 H   0  0  0  0  0  0  0  0  0  0  0  0
   22.8446  -11.4015    2.7310 H   0  0  0  0  0  0  0  0  0  0  0  0
   22.5388  -10.6085    5.0949 H   0  0  0  0  0  0  0  0  0  0  0  0
   22.5187   -8.9380    4.5291 H   0  0  0  0  0  0  0  0  0  0  0  0
   24.8494  -10.8982    4.1851 H   0  0  0  0  0  0  0  0  0  0  0  0
   24.7682   -9.5713    5.3600 H   0  0  0  0  0  0  0  0  0  0  0  0
   24.8332   -9.2156    3.6229 H   0  0  0  0  0  0  0  0  0  0  0  0
  1  2  1  0  0  0  0
  1 27  1  0  0  0  0
  2  3  1  0  0  0  0
  2 28  1  0  0  0  0
  3  4  1  0  0  0  0
  4  5  1  0  0  0  0
  4 29  1  0  0  0  0
  5  6  1  0  0  0  0
  5 30  1  0  0  0  0
  6  7  1  0  0  0  0
  6 31  1  0  0  0  0
  7  8  1  0  0  0  0
  7 32  1  0  0  0  0
  8  9  1  0  0  0  0
  8 33  1  0  0  0  0
  9 10  1  0  0  0  0
  9 34  1  0  0  0  0
 10 11  1  0  0  0  0
 10 35  1  0  0  0  0
 11 12  1  0  0  0  0
 11 36  1  0  0  0  0
 12 13  1  0  0  0  0
 12 37  1  0  0  0  0
 13 14  1  0  0  0  0
 13 38  1  0  0  0  0
 14 15  1  0  0  0  0
 14 39  1  0  0  0  0
 15 16  1  0  0  0  0
 15 40  1  0  0  0  0
 16 17  1  0  0  0  0
 16 41  1  0  0  0  0
 17 18  1  0  0  0  0
 17 42  1  0  0  0  0
 18 19  1  0  0  0  0
 18 43  1  0  0  0  0
 19 20  1  0  0  0  0
 19 44  1  0  0  0  0
 20 21  1  0  0  0  0
 20 45  1  0  0  0  0
 21 22  1  0  0  0  0
 21 46  1  0  0  0  0
 21 47  1  0  0  0  0
 22 23  1  0  0  0  0
 22 48  1  0  0  0  0
 22 49  1  0  0  0  0
 23 24  1  0  0  0  0
 23 50  1  0  0  0  0
 23 51  1  0  0  0  0
 24 25  1  0  0  0  0
 24 52  1  0  0  0  0
 24 53  1  0  0  0  0
 25 26  1  0  0  0  0
 25 54  1  0  0  0  0
 25 55  1  0  0  0  0
 26 56  1  0  0  0  0
 26 57  1  0  0  0  0
 26 58  1  0  0  0  0
M  END
$$$$
