
 OpenBabel04232216553D

 46 47  0  0  1  0  0  0  0  0999 V2000
    1.8288    1.5342   -0.4829 C   0  0  0  0  0  0  0  0  0  0  0  0
    3.1876    1.0947   -0.8099 N   0  0  0  0  0  0  0  0  0  0  0  0
    3.2289   -0.3491   -1.3076 C   0  0  3  0  0  0  0  0  0  0  0  0
    4.4554   -1.0073   -0.5793 C   0  0  0  0  0  0  0  0  0  0  0  0
    5.8254   -0.3614   -0.6869 C   0  0  0  0  0  0  0  0  0  0  0  0
    2.0565   -1.3651   -0.9651 C   0  0  0  0  0  0  0  0  0  0  0  0
    0.6907   -1.2825   -1.6631 C   0  0  0  0  0  0  0  0  0  0  0  0
   -0.1552   -2.5265   -1.3729 C   0  0  0  0  0  0  0  0  0  0  0  0
    3.3221   -0.1897   -2.8219 C   0  0  0  0  0  0  0  0  0  0  0  0
    3.4089    1.1135   -3.1181 C   0  0  0  0  0  0  0  0  0  0  0  0
    3.1071    1.7910   -4.3636 C   0  0  0  0  0  0  0  0  0  0  0  0
    2.0446    2.6271   -4.4131 C   0  0  0  0  0  0  0  0  0  0  0  0
    1.0280    2.4461   -3.5418 F   0  0  0  0  0  0  0  0  0  0  0  0
    2.0768    3.7871   -5.1403 N   0  0  0  0  0  0  0  0  0  0  0  0
    1.8819    4.9041   -4.4904 C   0  0  0  0  0  0  0  0  0  0  0  0
    1.3775    5.1539   -3.0786 C   0  0  0  0  0  0  0  0  0  0  0  0
    2.3229    6.0732   -5.0722 N   0  0  0  0  0  0  0  0  0  0  0  0
    3.6144    6.2430   -5.0181 C   0  0  0  0  0  0  0  0  0  0  0  0
    4.5970    5.2262   -4.5177 C   0  0  0  0  0  0  0  0  0  0  0  0
    4.5761    4.8836   -3.2233 C   0  0  0  0  0  0  0  0  0  0  0  0
    4.7263    3.5722   -2.7941 N   0  0  0  0  0  0  0  0  0  0  0  0
    3.9190    3.2203   -1.8794 N   0  0  0  0  0  0  0  0  0  0  0  0
    3.6355    1.8610   -1.9636 N   0  0  0  0  0  0  0  0  0  0  0  0
    1.4228    0.9437    0.3443 H   0  0  0  0  0  0  0  0  0  0  0  0
    1.1429    1.4664   -1.3317 H   0  0  0  0  0  0  0  0  0  0  0  0
    1.8241    2.5768   -0.1470 H   0  0  0  0  0  0  0  0  0  0  0  0
    4.5625   -2.0498   -0.9063 H   0  0  0  0  0  0  0  0  0  0  0  0
    4.2186   -1.0592    0.4947 H   0  0  0  0  0  0  0  0  0  0  0  0
    6.1626   -0.3070   -1.7244 H   0  0  0  0  0  0  0  0  0  0  0  0
    6.5479   -0.9711   -0.1304 H   0  0  0  0  0  0  0  0  0  0  0  0
    5.8423    0.6368   -0.2416 H   0  0  0  0  0  0  0  0  0  0  0  0
    1.8932   -1.3783    0.1217 H   0  0  0  0  0  0  0  0  0  0  0  0
    2.4365   -2.3725   -1.2042 H   0  0  0  0  0  0  0  0  0  0  0  0
    0.8103   -1.2033   -2.7480 H   0  0  0  0  0  0  0  0  0  0  0  0
    0.1263   -0.4131   -1.3220 H   0  0  0  0  0  0  0  0  0  0  0  0
    0.3395   -3.4393   -1.7244 H   0  0  0  0  0  0  0  0  0  0  0  0
   -1.1217   -2.4567   -1.8834 H   0  0  0  0  0  0  0  0  0  0  0  0
   -0.3485   -2.6366   -0.3010 H   0  0  0  0  0  0  0  0  0  0  0  0
    3.1284   -0.9863   -3.5240 H   0  0  0  0  0  0  0  0  0  0  0  0
    3.9446    1.9404   -5.0386 H   0  0  0  0  0  0  0  0  0  0  0  0
    1.3069    4.2686   -2.4565 H   0  0  0  0  0  0  0  0  0  0  0  0
    0.4095    5.6541   -3.1309 H   0  0  0  0  0  0  0  0  0  0  0  0
    2.0528    5.8542   -2.5680 H   0  0  0  0  0  0  0  0  0  0  0  0
    4.0472    7.1685   -5.4341 H   0  0  0  0  0  0  0  0  0  0  0  0
    4.9214    4.5389   -5.3051 H   0  0  0  0  0  0  0  0  0  0  0  0
    4.1942    5.5812   -2.4888 H   0  0  0  0  0  0  0  0  0  0  0  0
  1  2  1  0  0  0  0
  1 24  1  0  0  0  0
  1 25  1  0  0  0  0
  1 26  1  0  0  0  0
  2  3  1  0  0  0  0
  2 23  1  0  0  0  0
  3  4  1  0  0  0  0
  3  6  1  0  0  0  0
  3  9  1  0  0  0  0
  4  5  1  0  0  0  0
  4 27  1  0  0  0  0
  4 28  1  0  0  0  0
  5 29  1  0  0  0  0
  5 30  1  0  0  0  0
  5 31  1  0  0  0  0
  6  7  1  0  0  0  0
  6 32  1  0  0  0  0
  6 33  1  0  0  0  0
  7  8  1  0  0  0  0
  7 34  1  0  0  0  0
  7 35  1  0  0  0  0
  8 36  1  0  0  0  0
  8 37  1  0  0  0  0
  8 38  1  0  0  0  0
  9 10  2  0  0  0  0
  9 39  1  0  0  0  0
 10 11  1  0  0  0  0
 10 23  1  0  0  0  0
 11 12  2  3  0  0  0
 11 40  1  0  0  0  0
 12 13  1  0  0  0  0
 12 14  1  0  0  0  0
 14 15  2  3  0  0  0
 15 16  1  0  0  0  0
 15 17  1  0  0  0  0
 16 41  1  0  0  0  0
 16 42  1  0  0  0  0
 16 43  1  0  0  0  0
 17 18  2  3  0  0  0
 18 19  1  0  0  0  0
 18 44  1  0  0  0  0
 19 20  2  3  0  0  0
 19 45  1  0  0  0  0
 20 21  1  0  0  0  0
 20 46  1  0  0  0  0
 21 22  2  3  0  0  0
 22 23  1  0  0  0  0
M  END
$$$$
