
 OpenBabel04232216403D

 54 55  0  0  1  0  0  0  0  0999 V2000
    4.3880   -1.2231    1.9436 C   0  0  0  0  0  0  0  0  0  0  0  0
    3.7133   -0.2811    1.2720 C   0  0  0  0  0  0  0  0  0  0  0  0
    3.8713    1.1916    1.3890 C   0  0  0  0  0  0  0  0  0  0  0  0
    5.2886    1.7231    1.4237 N   0  0  0  0  0  0  0  0  0  0  0  0
    5.6593    2.4002    0.1984 C   0  0  0  0  0  0  0  0  0  0  0  0
    5.2776    3.9164    0.4208 C   0  0  0  0  0  0  0  0  0  0  0  0
    4.6119    3.8875    1.8308 C   0  0  3  0  0  0  0  0  0  0  0  0
    4.1098    5.1647    2.4892 C   0  0  0  0  0  0  0  0  0  0  0  0
    3.4707    4.9335    3.8748 C   0  0  0  0  0  0  0  0  0  0  0  0
    4.4455    4.9628    5.0476 C   0  0  0  0  0  0  0  0  0  0  0  0
    5.2332    6.2604    5.1149 C   0  0  0  0  0  0  0  0  0  0  0  0
    6.6794    1.8491   -0.5167 C   0  0  0  0  0  0  0  0  0  0  0  0
    6.8122    0.3457   -0.5985 C   0  0  0  0  0  0  0  0  0  0  0  0
    7.9356    2.6111   -0.7793 C   0  0  0  0  0  0  0  0  0  0  0  0
    8.9228    2.4116    0.1470 C   0  0  0  0  0  0  0  0  0  0  0  0
    9.8994    1.2415    0.0933 C   0  0  0  0  0  0  0  0  0  0  0  0
    9.9344    0.6029   -1.2030 O   0  0  0  0  0  0  0  0  0  0  0  0
   10.7150    1.2990   -2.1720 C   0  0  0  0  0  0  0  0  0  0  0  0
   10.7140    0.5087   -3.4688 C   0  0  0  0  0  0  0  0  0  0  0  0
    8.6735    3.0921    1.4422 C   0  0  0  0  0  0  0  0  0  0  0  0
    8.5701    4.4415    1.3309 F   0  0  0  0  0  0  0  0  0  0  0  0
    7.9724    2.4752    2.4304 C   0  0  0  0  0  0  0  0  0  0  0  0
    6.7290    3.1125    2.9338 C   0  0  0  0  0  0  0  0  0  0  0  0
    5.5138    2.7835    2.3842 C   0  0  0  0  0  0  0  0  0  0  0  0
    4.0999   -2.2641    1.8507 H   0  0  0  0  0  0  0  0  0  0  0  0
    5.1981   -0.9584    2.6115 H   0  0  0  0  0  0  0  0  0  0  0  0
    2.8760   -0.5949    0.6453 H   0  0  0  0  0  0  0  0  0  0  0  0
    3.3253    1.4916    2.2921 H   0  0  0  0  0  0  0  0  0  0  0  0
    3.3426    1.6371    0.5353 H   0  0  0  0  0  0  0  0  0  0  0  0
    4.5554    4.2360   -0.3356 H   0  0  0  0  0  0  0  0  0  0  0  0
    6.1422    4.5870    0.4047 H   0  0  0  0  0  0  0  0  0  0  0  0
    3.6298    3.4354    1.6629 H   0  0  0  0  0  0  0  0  0  0  0  0
    3.2789    5.5108    1.8514 H   0  0  0  0  0  0  0  0  0  0  0  0
    4.8309    5.9793    2.4630 H   0  0  0  0  0  0  0  0  0  0  0  0
    2.9219    3.9808    3.8911 H   0  0  0  0  0  0  0  0  0  0  0  0
    2.7103    5.7083    4.0449 H   0  0  0  0  0  0  0  0  0  0  0  0
    5.1276    4.1109    4.9970 H   0  0  0  0  0  0  0  0  0  0  0  0
    3.8808    4.8441    5.9808 H   0  0  0  0  0  0  0  0  0  0  0  0
    5.8454    6.4107    4.2219 H   0  0  0  0  0  0  0  0  0  0  0  0
    5.9117    6.2497    5.9710 H   0  0  0  0  0  0  0  0  0  0  0  0
    4.5581    7.1162    5.2158 H   0  0  0  0  0  0  0  0  0  0  0  0
    5.8320   -0.1183   -0.7462 H   0  0  0  0  0  0  0  0  0  0  0  0
    7.2566   -0.0724    0.3110 H   0  0  0  0  0  0  0  0  0  0  0  0
    7.4197    0.0487   -1.4583 H   0  0  0  0  0  0  0  0  0  0  0  0
    7.6280    3.6571   -0.8828 H   0  0  0  0  0  0  0  0  0  0  0  0
    9.5860    0.4685    0.7973 H   0  0  0  0  0  0  0  0  0  0  0  0
   10.9049    1.5532    0.3619 H   0  0  0  0  0  0  0  0  0  0  0  0
   11.7452    1.4048   -1.8140 H   0  0  0  0  0  0  0  0  0  0  0  0
   10.2970    2.2929   -2.3600 H   0  0  0  0  0  0  0  0  0  0  0  0
   11.0808   -0.5118   -3.3125 H   0  0  0  0  0  0  0  0  0  0  0  0
   11.3448    0.9941   -4.2188 H   0  0  0  0  0  0  0  0  0  0  0  0
    9.7008    0.4223   -3.8785 H   0  0  0  0  0  0  0  0  0  0  0  0
    7.9771    1.3897    2.4941 H   0  0  0  0  0  0  0  0  0  0  0  0
    6.8786    4.0987    3.3604 H   0  0  0  0  0  0  0  0  0  0  0  0
  1  2  2  0  0  0  0
  1 25  1  0  0  0  0
  1 26  1  0  0  0  0
  2  3  1  0  0  0  0
  2 27  1  0  0  0  0
  3  4  1  0  0  0  0
  3 28  1  0  0  0  0
  3 29  1  0  0  0  0
  4  5  1  0  0  0  0
  4 24  1  0  0  0  0
  5  6  1  0  0  0  0
  5 12  2  0  0  0  0
  6  7  1  0  0  0  0
  6 30  1  0  0  0  0
  6 31  1  0  0  0  0
  7  8  1  0  0  0  0
  7 24  1  0  0  0  0
  7 32  1  0  0  0  0
  8  9  1  0  0  0  0
  8 33  1  0  0  0  0
  8 34  1  0  0  0  0
  9 10  1  0  0  0  0
  9 35  1  0  0  0  0
  9 36  1  0  0  0  0
 10 11  1  0  0  0  0
 10 37  1  0  0  0  0
 10 38  1  0  0  0  0
 11 39  1  0  0  0  0
 11 40  1  0  0  0  0
 11 41  1  0  0  0  0
 12 13  1  0  0  0  0
 12 14  1  0  0  0  0
 13 42  1  0  0  0  0
 13 43  1  0  0  0  0
 13 44  1  0  0  0  0
 14 15  2  0  0  0  0
 14 45  1  0  0  0  0
 15 16  1  0  0  0  0
 15 20  1  0  0  0  0
 16 17  1  0  0  0  0
 16 46  1  0  0  0  0
 16 47  1  0  0  0  0
 17 18  1  0  0  0  0
 18 19  1  0  0  0  0
 18 48  1  0  0  0  0
 18 49  1  0  0  0  0
 19 50  1  0  0  0  0
 19 51  1  0  0  0  0
 19 52  1  0  0  0  0
 20 21  1  0  0  0  0
 20 22  2  0  0  0  0
 22 23  1  0  0  0  0
 22 53  1  0  0  0  0
 23 24  2  0  0  0  0
 23 54  1  0  0  0  0
M  END
$$$$
