
 OpenBabel04232216453D

 48 51  0  0  0  0  0  0  0  0999 V2000
    2.3674   -2.5679   -2.4212 C   0  0  0  0  0  0  0  0  0  0  0  0
    3.8425   -2.5730   -2.1607 C   0  0  0  0  0  0  0  0  0  0  0  0
    4.5687   -1.8001   -2.9904 C   0  0  0  0  0  0  0  0  0  0  0  0
    5.6222   -1.0126   -2.3542 C   0  0  0  0  0  0  0  0  0  0  0  0
    4.9135    0.2671   -1.8962 C   0  0  0  0  0  0  0  0  0  0  0  0
    6.3847   -1.6575   -1.4350 C   0  0  0  0  0  0  0  0  0  0  0  0
    7.8790   -1.6415   -1.7128 C   0  0  0  0  0  0  0  0  0  0  0  0
    8.6474   -0.6256   -0.8718 C   0  0  0  0  0  0  0  0  0  0  0  0
   10.0939   -0.3664   -1.3437 C   0  0  0  0  0  0  0  0  0  0  0  0
   10.3089    0.2303   -2.7531 C   0  0  0  0  0  0  0  0  0  0  0  0
    9.5935    1.5556   -3.0330 C   0  0  0  0  0  0  0  0  0  0  0  0
    9.2906    2.2671   -1.9765 N   0  0  0  0  0  0  0  0  0  0  0  0
    8.3339    3.2491   -2.1256 N   0  0  0  0  0  0  0  0  0  0  0  0
    8.7527    4.2129   -2.8619 C   0  0  0  0  0  0  0  0  0  0  0  0
    8.2339    4.0896   -4.1709 C   0  0  0  0  0  0  0  0  0  0  0  0
    7.1289    4.6225   -4.7967 C   0  0  0  0  0  0  0  0  0  0  0  0
    7.2246    4.2277   -6.1504 C   0  0  0  0  0  0  0  0  0  0  0  0
    8.3016    3.3666   -6.2438 C   0  0  0  0  0  0  0  0  0  0  0  0
    8.6834    3.0383   -4.9462 N   0  0  0  0  0  0  0  0  0  0  0  0
    9.3769    1.8737   -4.5345 C   0  0  0  0  0  0  0  0  0  0  0  0
    9.8034    1.1169   -5.3956 O   0  0  0  0  0  0  0  0  0  0  0  0
    5.7796   -2.6885   -0.6647 N   0  0  0  0  0  0  0  0  0  0  0  0
    6.3511   -3.2707    0.4456 C   0  0  0  0  0  0  0  0  0  0  0  0
    5.6136   -4.1073    1.1799 C   0  0  0  0  0  0  0  0  0  0  0  0
    4.3110   -4.3918    0.8652 N   0  0  0  0  0  0  0  0  0  0  0  0
    3.7149   -3.8880   -0.1261 N   0  0  0  0  0  0  0  0  0  0  0  0
    4.4038   -2.9992   -0.9362 N   0  0  0  0  0  0  0  0  0  0  0  0
    1.7848   -2.6322   -1.4996 H   0  0  0  0  0  0  0  0  0  0  0  0
    2.0608   -3.3327   -3.1344 H   0  0  0  0  0  0  0  0  0  0  0  0
    2.1006   -1.5877   -2.8520 H   0  0  0  0  0  0  0  0  0  0  0  0
    4.2112   -1.4575   -3.9557 H   0  0  0  0  0  0  0  0  0  0  0  0
    4.0167    0.0292   -1.2985 H   0  0  0  0  0  0  0  0  0  0  0  0
    4.5691    0.8418   -2.7632 H   0  0  0  0  0  0  0  0  0  0  0  0
    5.5481    0.9034   -1.2783 H   0  0  0  0  0  0  0  0  0  0  0  0
    8.0191   -1.3930   -2.7737 H   0  0  0  0  0  0  0  0  0  0  0  0
    8.3021   -2.6461   -1.5970 H   0  0  0  0  0  0  0  0  0  0  0  0
    8.6936   -0.9978    0.1598 H   0  0  0  0  0  0  0  0  0  0  0  0
    8.0939    0.3174   -0.8223 H   0  0  0  0  0  0  0  0  0  0  0  0
   10.6492   -1.3113   -1.2908 H   0  0  0  0  0  0  0  0  0  0  0  0
   10.5607    0.3021   -0.6093 H   0  0  0  0  0  0  0  0  0  0  0  0
   10.0077   -0.5047   -3.5054 H   0  0  0  0  0  0  0  0  0  0  0  0
   11.3815    0.4147   -2.8919 H   0  0  0  0  0  0  0  0  0  0  0  0
    9.7555    4.6941   -2.7535 H   0  0  0  0  0  0  0  0  0  0  0  0
    6.3812    5.2622   -4.3444 H   0  0  0  0  0  0  0  0  0  0  0  0
    6.5854    4.5422   -6.9665 H   0  0  0  0  0  0  0  0  0  0  0  0
    8.7476    2.8680   -7.0957 H   0  0  0  0  0  0  0  0  0  0  0  0
    7.3655   -3.0012    0.6969 H   0  0  0  0  0  0  0  0  0  0  0  0
    6.0058   -4.5862    2.0713 H   0  0  0  0  0  0  0  0  0  0  0  0
  1  2  1  0  0  0  0
  1 28  1  0  0  0  0
  1 29  1  0  0  0  0
  1 30  1  0  0  0  0
  2  3  2  0  0  0  0
  2 27  1  0  0  0  0
  3  4  1  0  0  0  0
  3 31  1  0  0  0  0
  4  5  1  0  0  0  0
  4  6  2  0  0  0  0
  5 32  1  0  0  0  0
  5 33  1  0  0  0  0
  5 34  1  0  0  0  0
  6  7  1  0  0  0  0
  6 22  1  0  0  0  0
  7  8  1  0  0  0  0
  7 35  1  0  0  0  0
  7 36  1  0  0  0  0
  8  9  1  0  0  0  0
  8 37  1  0  0  0  0
  8 38  1  0  0  0  0
  9 10  1  0  0  0  0
  9 39  1  0  0  0  0
  9 40  1  0  0  0  0
 10 11  1  0  0  0  0
 10 41  1  0  0  0  0
 10 42  1  0  0  0  0
 11 12  2  0  0  0  0
 11 20  1  0  0  0  0
 12 13  1  0  0  0  0
 13 14  2  0  0  0  0
 14 15  1  0  0  0  0
 14 43  1  0  0  0  0
 15 16  2  0  0  0  0
 15 19  1  0  0  0  0
 16 17  1  0  0  0  0
 16 44  1  0  0  0  0
 17 18  2  0  0  0  0
 17 45  1  0  0  0  0
 18 19  1  0  0  0  0
 18 46  1  0  0  0  0
 19 20  1  0  0  0  0
 20 21  2  0  0  0  0
 22 23  1  0  0  0  0
 22 27  1  0  0  0  0
 23 24  2  0  0  0  0
 23 47  1  0  0  0  0
 24 25  1  0  0  0  0
 24 48  1  0  0  0  0
 25 26  2  0  0  0  0
 26 27  1  0  0  0  0
M  END
$$$$
