
 OpenBabel04232216493D

 91 91  0  0  1  0  0  0  0  0999 V2000
    1.6957   -0.0657   -0.7355 C   0  0  0  0  0  0  0  0  0  0  0  0
    0.8382   -0.0586    0.5311 C   0  0  3  0  0  0  0  0  0  0  0  0
   -0.1371   -1.2249    0.5644 C   0  0  0  0  0  0  0  0  0  0  0  0
   -1.3014   -0.7755   -0.3270 C   0  0  0  0  0  0  0  0  0  0  0  0
   -1.2643    0.7389   -0.3692 C   0  0  0  0  0  0  0  0  0  0  0  0
   -0.1506    1.1104    0.5658 C   0  0  3  0  0  0  0  0  0  0  0  0
    0.3714    2.2871    0.0491 O   0  0  0  0  0  0  0  0  0  0  0  0
    1.3889    2.5824    0.9667 O   0  0  0  0  0  0  0  0  0  0  0  0
    2.0104    3.7400    0.5206 O   0  0  0  0  0  0  0  0  0  0  0  0
    3.0174    4.0160    1.4305 O   0  0  0  0  0  0  0  0  0  0  0  0
    3.6142    5.1818    1.0016 O   0  0  0  0  0  0  0  0  0  0  0  0
    4.6145    5.4571    1.8978 O   0  0  0  0  0  0  0  0  0  0  0  0
    5.1850    6.6167    1.4477 O   0  0  0  0  0  0  0  0  0  0  0  0
    6.1856    6.9005    2.3389 O   0  0  0  0  0  0  0  0  0  0  0  0
    6.7494    8.0583    1.8830 O   0  0  0  0  0  0  0  0  0  0  0  0
    7.7444    8.3303    2.7782 O   0  0  0  0  0  0  0  0  0  0  0  0
    8.3102    9.4875    2.3246 O   0  0  0  0  0  0  0  0  0  0  0  0
    9.3037    9.7575    3.2203 O   0  0  0  0  0  0  0  0  0  0  0  0
    9.8704   10.9133    2.7691 O   0  0  0  0  0  0  0  0  0  0  0  0
   10.8634   11.1825    3.6649 O   0  0  0  0  0  0  0  0  0  0  0  0
   11.4291   12.3382    3.2127 O   0  0  0  0  0  0  0  0  0  0  0  0
   12.4211   12.6059    4.1088 O   0  0  0  0  0  0  0  0  0  0  0  0
   12.9870   13.7626    3.6558 O   0  0  0  0  0  0  0  0  0  0  0  0
   13.9696   14.0185    4.5524 O   0  0  0  0  0  0  0  0  0  0  0  0
   14.5470   15.1793    4.1089 O   0  0  0  0  0  0  0  0  0  0  0  0
   15.5321   15.4413    5.0024 O   0  0  0  0  0  0  0  0  0  0  0  0
   16.0910   16.5987    4.5407 O   0  0  0  0  0  0  0  0  0  0  0  0
   17.0866   16.8793    5.4285 O   0  0  0  0  0  0  0  0  0  0  0  0
   17.6537   18.0281    4.9846 O   0  0  0  0  0  0  0  0  0  0  0  0
   18.6504   18.2981    5.8839 O   0  0  0  0  0  0  0  0  0  0  0  0
   19.2165   19.4548    5.4313 O   0  0  0  0  0  0  0  0  0  0  0  0
   20.2116   19.7435    6.3108 O   0  0  0  0  0  0  0  0  0  0  0  0
   20.7740   20.8783    5.8747 O   0  0  0  0  0  0  0  0  0  0  0  0
   21.7659   21.1463    6.7705 O   0  0  0  0  0  0  0  0  0  0  0  0
   22.3311   22.3014    6.3182 O   0  0  0  0  0  0  0  0  0  0  0  0
   23.3230   22.5694    7.2140 O   0  0  0  0  0  0  0  0  0  0  0  0
   23.8882   23.7245    6.7617 O   0  0  0  0  0  0  0  0  0  0  0  0
   24.8801   23.9924    7.6575 O   0  0  0  0  0  0  0  0  0  0  0  0
   25.4453   25.1475    7.2052 O   0  0  0  0  0  0  0  0  0  0  0  0
   26.4372   25.4155    8.1010 O   0  0  0  0  0  0  0  0  0  0  0  0
   27.0024   26.5706    7.6487 O   0  0  0  0  0  0  0  0  0  0  0  0
   27.9943   26.8386    8.5445 O   0  0  0  0  0  0  0  0  0  0  0  0
   28.5595   27.9937    8.0923 O   0  0  0  0  0  0  0  0  0  0  0  0
   29.5514   28.2616    8.9880 O   0  0  0  0  0  0  0  0  0  0  0  0
   30.1166   29.4167    8.5358 O   0  0  0  0  0  0  0  0  0  0  0  0
   31.1085   29.6847    9.4315 O   0  0  0  0  0  0  0  0  0  0  0  0
   31.6737   30.8398    8.9793 O   0  0  0  0  0  0  0  0  0  0  0  0
   32.6656   31.1078    9.8750 O   0  0  0  0  0  0  0  0  0  0  0  0
   33.2308   32.2629    9.4228 O   0  0  0  0  0  0  0  0  0  0  0  0
   34.2227   32.5309   10.3185 O   0  0  0  0  0  0  0  0  0  0  0  0
   34.7879   33.6859    9.8663 O   0  0  0  0  0  0  0  0  0  0  0  0
   35.7798   33.9539   10.7620 O   0  0  0  0  0  0  0  0  0  0  0  0
   36.3450   35.1090   10.3098 O   0  0  0  0  0  0  0  0  0  0  0  0
   37.3369   35.3770   11.2055 O   0  0  0  0  0  0  0  0  0  0  0  0
   37.9021   36.5321   10.7533 O   0  0  0  0  0  0  0  0  0  0  0  0
   38.8940   36.8001   11.6490 O   0  0  0  0  0  0  0  0  0  0  0  0
   39.4592   37.9551   11.1968 O   0  0  0  0  0  0  0  0  0  0  0  0
   40.4511   38.2231   12.0925 O   0  0  0  0  0  0  0  0  0  0  0  0
   41.0163   39.3782   11.6403 O   0  0  0  0  0  0  0  0  0  0  0  0
   42.0082   39.6462   12.5360 O   0  0  0  0  0  0  0  0  0  0  0  0
   42.5733   40.8013   12.0837 O   0  0  0  0  0  0  0  0  0  0  0  0
   43.5652   41.0690   12.9797 O   0  0  0  0  0  0  0  0  0  0  0  0
   44.1309   42.2243   12.5278 O   0  0  0  0  0  0  0  0  0  0  0  0
   45.1229   42.4924   13.4235 O   0  0  0  0  0  0  0  0  0  0  0  0
   45.6882   43.6477   12.9713 O   0  0  0  0  0  0  0  0  0  0  0  0
   46.6808   43.9170   13.8666 O   0  0  0  0  0  0  0  0  0  0  0  0
   47.2469   45.0729   13.4146 O   0  0  0  0  0  0  0  0  0  0  0  0
   48.2410   45.3425   14.3113 O   0  0  0  0  0  0  0  0  0  0  0  0
   48.8096   46.5002   13.8605 O   0  0  0  0  0  0  0  0  0  0  0  0
   49.8050   46.7707   14.7578 O   0  0  0  0  0  0  0  0  0  0  0  0
   50.3775   47.9307   14.3094 O   0  0  0  0  0  0  0  0  0  0  0  0
   51.3760   48.2035   15.2081 O   0  0  0  0  0  0  0  0  0  0  0  0
   51.9613   49.3721   14.7653 O   0  0  0  0  0  0  0  0  0  0  0  0
   52.9652   49.6585   15.6607 O   0  0  0  0  0  0  0  0  0  0  0  0
   53.5491   50.8351   15.2124 O   0  0  0  0  0  0  0  0  0  0  0  0
   54.5941   51.1307   16.0844 O   0  0  0  0  0  0  0  0  0  0  0  0
   55.1991   52.3265   15.6296 O   0  0  0  0  0  0  0  0  0  0  0  0
   56.2190   52.6660   16.5590 O   0  0  0  0  0  0  0  0  0  0  0  0
   55.6346   52.8318   17.8700 O   0  0  0  0  0  0  0  0  0  0  0  0
    2.3820   -0.9169   -0.7333 H   0  0  0  0  0  0  0  0  0  0  0  0
    2.2928    0.8482   -0.8201 H   0  0  0  0  0  0  0  0  0  0  0  0
    1.0708   -0.1353   -1.6298 H   0  0  0  0  0  0  0  0  0  0  0  0
    1.5140   -0.0527    1.3984 H   0  0  0  0  0  0  0  0  0  0  0  0
   -0.5006   -1.3800    1.5879 H   0  0  0  0  0  0  0  0  0  0  0  0
    0.3112   -2.1590    0.2185 H   0  0  0  0  0  0  0  0  0  0  0  0
   -2.2593   -1.1176    0.0645 H   0  0  0  0  0  0  0  0  0  0  0  0
   -1.1795   -1.1677   -1.3413 H   0  0  0  0  0  0  0  0  0  0  0  0
   -2.1939    1.2101   -0.0428 H   0  0  0  0  0  0  0  0  0  0  0  0
   -1.0641    1.1126   -1.3847 H   0  0  0  0  0  0  0  0  0  0  0  0
   -0.5183    1.2931    1.5846 H   0  0  0  0  0  0  0  0  0  0  0  0
   56.4769   53.0216   18.3064 H   0  0  0  0  0  0  0  0  0  0  0  0
  1  2  1  0  0  0  0
  1 80  1  0  0  0  0
  1 81  1  0  0  0  0
  1 82  1  0  0  0  0
  2  3  1  0  0  0  0
  2  6  1  0  0  0  0
  2 83  1  0  0  0  0
  3  4  1  0  0  0  0
  3 84  1  0  0  0  0
  3 85  1  0  0  0  0
  4  5  1  0  0  0  0
  4 86  1  0  0  0  0
  4 87  1  0  0  0  0
  5  6  1  0  0  0  0
  5 88  1  0  0  0  0
  5 89  1  0  0  0  0
  6  7  1  0  0  0  0
  6 90  1  0  0  0  0
  7  8  1  0  0  0  0
  8  9  1  0  0  0  0
  9 10  1  0  0  0  0
 10 11  1  0  0  0  0
 11 12  1  0  0  0  0
 12 13  1  0  0  0  0
 13 14  1  0  0  0  0
 14 15  1  0  0  0  0
 15 16  1  0  0  0  0
 16 17  1  0  0  0  0
 17 18  1  0  0  0  0
 18 19  1  0  0  0  0
 19 20  1  0  0  0  0
 20 21  1  0  0  0  0
 21 22  1  0  0  0  0
 22 23  1  0  0  0  0
 23 24  1  0  0  0  0
 24 25  1  0  0  0  0
 25 26  1  0  0  0  0
 26 27  1  0  0  0  0
 27 28  1  0  0  0  0
 28 29  1  0  0  0  0
 29 30  1  0  0  0  0
 30 31  1  0  0  0  0
 31 32  1  0  0  0  0
 32 33  1  0  0  0  0
 33 34  1  0  0  0  0
 34 35  1  0  0  0  0
 35 36  1  0  0  0  0
 36 37  1  0  0  0  0
 37 38  1  0  0  0  0
 38 39  1  0  0  0  0
 39 40  1  0  0  0  0
 40 41  1  0  0  0  0
 41 42  1  0  0  0  0
 42 43  1  0  0  0  0
 43 44  1  0  0  0  0
 44 45  1  0  0  0  0
 45 46  1  0  0  0  0
 46 47  1  0  0  0  0
 47 48  1  0  0  0  0
 48 49  1  0  0  0  0
 49 50  1  0  0  0  0
 50 51  1  0  0  0  0
 51 52  1  0  0  0  0
 52 53  1  0  0  0  0
 53 54  1  0  0  0  0
 54 55  1  0  0  0  0
 55 56  1  0  0  0  0
 56 57  1  0  0  0  0
 57 58  1  0  0  0  0
 58 59  1  0  0  0  0
 59 60  1  0  0  0  0
 60 61  1  0  0  0  0
 61 62  1  0  0  0  0
 62 63  1  0  0  0  0
 63 64  1  0  0  0  0
 64 65  1  0  0  0  0
 65 66  1  0  0  0  0
 66 67  1  0  0  0  0
 67 68  1  0  0  0  0
 68 69  1  0  0  0  0
 69 70  1  0  0  0  0
 70 71  1  0  0  0  0
 71 72  1  0  0  0  0
 72 73  1  0  0  0  0
 73 74  1  0  0  0  0
 74 75  1  0  0  0  0
 75 76  1  0  0  0  0
 76 77  1  0  0  0  0
 77 78  1  0  0  0  0
 78 79  1  0  0  0  0
 79 91  1  0  0  0  0
M  END
$$$$
