
 OpenBabel04232216503D

224224  0  0  0  0  0  0  0  0999 V2000
 -448.1837-1015.9593 -337.4084 C   0  0  0  0  0  0  0  0  0  0  0  0
 -451.7396-1018.4569 -338.4249 C   0  0  0  0  0  0  0  0  0  0  0  0
 -447.8332-1015.5913 -337.3640 C   0  0  0  0  0  0  0  0  0  0  0  0
 -443.5396-1012.6025 -336.5268 C   0  0  0  0  0  0  0  0  0  0  0  0
 -439.4954-1010.5654 -335.5914 C   0  0  0  0  0  0  0  0  0  0  0  0
 -435.1671-1008.0123 -334.6982 C   0  0  0  0  0  0  0  0  0  0  0  0
 -431.6299-1006.0102 -334.0246 C   0  0  0  0  0  0  0  0  0  0  0  0
 -430.5770-1003.5416 -333.8452 C   0  0  0  0  0  0  0  0  0  0  0  0
 -432.1315-1004.7189 -333.0980 C   0  0  0  0  0  0  0  0  0  0  0  0
 -432.5008-1004.8385 -334.8134 C   0  0  0  0  0  0  0  0  0  0  0  0
 -434.1864-1006.0781 -334.7620 C   0  0  0  0  0  0  0  0  0  0  0  0
 -435.2240-1006.9131 -335.1695 C   0  0  0  0  0  0  0  0  0  0  0  0
 -436.1938-1008.2505 -333.2177 C   0  0  0  0  0  0  0  0  0  0  0  0
 -436.2833-1007.2381 -335.1795 C   0  0  0  0  0  0  0  0  0  0  0  0
 -437.9223-1007.7685 -334.7861 C   0  0  0  0  0  0  0  0  0  0  0  0
 -438.6085-1008.4421 -335.5906 C   0  0  0  0  0  0  0  0  0  0  0  0
 -439.1743-1009.6335 -333.7254 C   0  0  0  0  0  0  0  0  0  0  0  0
 -441.1601-1009.8971 -335.0438 C   0  0  0  0  0  0  0  0  0  0  0  0
 -442.6049-1011.5757 -335.0366 C   0  0  0  0  0  0  0  0  0  0  0  0
 -442.6665-1013.3132 -335.2902 C   0  0  0  0  0  0  0  0  0  0  0  0
 -443.2187-1013.6363 -333.9263 C   0  0  0  0  0  0  0  0  0  0  0  0
 -444.6623-1013.1754 -335.5397 C   0  0  0  0  0  0  0  0  0  0  0  0
 -445.6189-1015.1041 -336.0974 C   0  0  0  0  0  0  0  0  0  0  0  0
 -446.9126-1014.1988 -338.2653 C   0  0  0  0  0  0  0  0  0  0  0  0
 -448.4188-1014.4224 -336.8790 C   0  0  0  0  0  0  0  0  0  0  0  0
 -449.3986-1014.2390 -338.6504 C   0  0  0  0  0  0  0  0  0  0  0  0
 -449.9187-1015.6620 -337.0439 C   0  0  0  0  0  0  0  0  0  0  0  0
 -451.7805-1016.3698 -338.0796 C   0  0  0  0  0  0  0  0  0  0  0  0
 -451.6761-1017.2694 -337.0397 C   0  0  0  0  0  0  0  0  0  0  0  0
 -452.6162-1016.8817 -337.9572 C   0  0  0  0  0  0  0  0  0  0  0  0
 -453.4024-1018.3718 -336.9921 C   0  0  0  0  0  0  0  0  0  0  0  0
 -454.3682-1019.2110 -336.2581 C   0  0  0  0  0  0  0  0  0  0  0  0
 -456.1200-1019.8228 -337.8695 C   0  0  0  0  0  0  0  0  0  0  0  0
 -457.7646-1019.8077 -339.8520 C   0  0  0  0  0  0  0  0  0  0  0  0
 -458.1211-1020.8745 -338.7237 C   0  0  0  0  0  0  0  0  0  0  0  0
 -458.9232-1021.1556 -339.8663 C   0  0  0  0  0  0  0  0  0  0  0  0
 -459.9563-1022.0293 -339.2926 C   0  0  0  0  0  0  0  0  0  0  0  0
 -460.9845-1022.3556 -340.3544 C   0  0  0  0  0  0  0  0  0  0  0  0
 -461.9785-1023.2866 -339.7451 C   0  0  0  0  0  0  0  0  0  0  0  0
 -463.0651-1024.0154 -339.3001 C   0  0  0  0  0  0  0  0  0  0  0  0
 -464.2956-1024.3768 -339.5258 C   0  0  0  0  0  0  0  0  0  0  0  0
 -464.4922-1023.5375 -340.8480 C   0  0  0  0  0  0  0  0  0  0  0  0
 -465.8973-1025.2888 -340.4954 C   0  0  0  0  0  0  0  0  0  0  0  0
 -467.1411-1026.5069 -341.0187 C   0  0  0  0  0  0  0  0  0  0  0  0
 -467.7524-1026.4678 -340.0126 C   0  0  0  0  0  0  0  0  0  0  0  0
 -469.5334-1026.9301 -341.4080 C   0  0  0  0  0  0  0  0  0  0  0  0
 -471.1599-1028.4641 -340.9334 C   0  0  0  0  0  0  0  0  0  0  0  0
 -471.7753-1027.9340 -342.5072 C   0  0  0  0  0  0  0  0  0  0  0  0
 -473.3771-1029.4348 -342.2216 C   0  0  0  0  0  0  0  0  0  0  0  0
 -473.9895-1029.9094 -341.1838 C   0  0  0  0  0  0  0  0  0  0  0  0
 -474.7635-1030.5616 -342.2985 C   0  0  0  0  0  0  0  0  0  0  0  0
 -475.7695-1030.4959 -343.7701 C   0  0  0  0  0  0  0  0  0  0  0  0
 -476.6022-1031.8322 -342.7965 C   0  0  0  0  0  0  0  0  0  0  0  0
 -477.5219-1031.8133 -344.8114 C   0  0  0  0  0  0  0  0  0  0  0  0
 -478.7901-1033.0073 -343.3311 C   0  0  0  0  0  0  0  0  0  0  0  0
 -480.0457-1032.7446 -344.0953 C   0  0  0  0  0  0  0  0  0  0  0  0
 -480.9337-1034.4112 -343.6841 C   0  0  0  0  0  0  0  0  0  0  0  0
 -482.4220-1034.7980 -343.9173 C   0  0  0  0  0  0  0  0  0  0  0  0
 -483.9657-1036.2804 -343.2401 C   0  0  0  0  0  0  0  0  0  0  0  0
 -484.5129-1035.8493 -344.1120 C   0  0  0  0  0  0  0  0  0  0  0  0
 -485.1325-1036.8393 -344.7892 C   0  0  0  0  0  0  0  0  0  0  0  0
 -485.2669-1035.8664 -346.8521 C   0  0  0  0  0  0  0  0  0  0  0  0
 -486.6976-1037.3464 -347.4324 C   0  0  0  0  0  0  0  0  0  0  0  0
 -488.2467-1037.6099 -345.9639 C   0  0  0  0  0  0  0  0  0  0  0  0
 -489.2623-1038.9647 -345.2086 C   0  0  0  0  0  0  0  0  0  0  0  0
 -489.9846-1038.3483 -347.2966 C   0  0  0  0  0  0  0  0  0  0  0  0
 -491.2810-1040.0024 -348.3377 C   0  0  0  0  0  0  0  0  0  0  0  0
 -492.9037-1041.3042 -347.0371 C   0  0  0  0  0  0  0  0  0  0  0  0
 -491.0906-1040.4423 -346.1567 C   0  0  0  0  0  0  0  0  0  0  0  0
 -487.8182-1039.2569 -346.2992 C   0  0  0  0  0  0  0  0  0  0  0  0
 -483.5778-1036.3176 -345.6723 C   0  0  0  0  0  0  0  0  0  0  0  0
 -478.7130-1033.4536 -344.6397 C   0  0  0  0  0  0  0  0  0  0  0  0
 -473.3500-1030.5053 -343.4812 C   0  0  0  0  0  0  0  0  0  0  0  0
 -468.2748-1027.2736 -342.1214 C   0  0  0  0  0  0  0  0  0  0  0  0
 -462.5949-1024.3619 -340.9021 C   0  0  0  0  0  0  0  0  0  0  0  0
 -457.0405-1021.2077 -339.5705 C   0  0  0  0  0  0  0  0  0  0  0  0
 -445.4892-1014.2745 -336.6690 H   0  0  0  0  0  0  0  0  0  0  0  0
 -445.4957-1014.2659 -336.6710 H   0  0  0  0  0  0  0  0  0  0  0  0
 -445.4837-1014.2777 -336.6780 H   0  0  0  0  0  0  0  0  0  0  0  0
 -445.7170-1013.4074 -336.9770 H   0  0  0  0  0  0  0  0  0  0  0  0
 -440.7264-1011.1149 -335.6697 H   0  0  0  0  0  0  0  0  0  0  0  0
 -436.9891-1008.9345 -334.8018 H   0  0  0  0  0  0  0  0  0  0  0  0
 -432.5650-1006.3037 -334.3527 H   0  0  0  0  0  0  0  0  0  0  0  0
 -432.6496-1006.2303 -334.1633 H   0  0  0  0  0  0  0  0  0  0  0  0
 -429.3664-1004.7759 -332.6679 H   0  0  0  0  0  0  0  0  0  0  0  0
 -428.8739-1005.1978 -333.8926 H   0  0  0  0  0  0  0  0  0  0  0  0
 -429.9344-1004.5914 -333.0103 H   0  0  0  0  0  0  0  0  0  0  0  0
 -429.3118-1003.1582 -334.5021 H   0  0  0  0  0  0  0  0  0  0  0  0
 -431.3588-1004.0284 -332.1447 H   0  0  0  0  0  0  0  0  0  0  0  0
 -430.6593-1005.3914 -332.3333 H   0  0  0  0  0  0  0  0  0  0  0  0
 -432.0750-1003.8720 -334.3607 H   0  0  0  0  0  0  0  0  0  0  0  0
 -433.2493-1004.9825 -334.5522 H   0  0  0  0  0  0  0  0  0  0  0  0
 -433.4109-1006.3867 -333.0262 H   0  0  0  0  0  0  0  0  0  0  0  0
 -432.6335-1007.2269 -334.3374 H   0  0  0  0  0  0  0  0  0  0  0  0
 -433.7168-1006.5821 -335.9307 H   0  0  0  0  0  0  0  0  0  0  0  0
 -434.1789-1005.7478 -334.5388 H   0  0  0  0  0  0  0  0  0  0  0  0
 -435.0098-1008.0327 -333.0014 H   0  0  0  0  0  0  0  0  0  0  0  0
 -435.8482-1010.2281 -332.9019 H   0  0  0  0  0  0  0  0  0  0  0  0
 -435.6288-1008.1384 -335.8166 H   0  0  0  0  0  0  0  0  0  0  0  0
 -436.0963-1006.2306 -334.8469 H   0  0  0  0  0  0  0  0  0  0  0  0
 -437.4019-1008.6200 -336.1088 H   0  0  0  0  0  0  0  0  0  0  0  0
 -437.5666-1006.8812 -336.0144 H   0  0  0  0  0  0  0  0  0  0  0  0
 -438.6499-1008.1799 -336.3935 H   0  0  0  0  0  0  0  0  0  0  0  0
 -438.4699-1009.8227 -336.2651 H   0  0  0  0  0  0  0  0  0  0  0  0
 -439.0454-1010.4102 -333.9138 H   0  0  0  0  0  0  0  0  0  0  0  0
 -437.3778-1009.8210 -333.5361 H   0  0  0  0  0  0  0  0  0  0  0  0
 -442.0344-1009.6876 -334.8222 H   0  0  0  0  0  0  0  0  0  0  0  0
 -441.6516-1011.1988 -334.2659 H   0  0  0  0  0  0  0  0  0  0  0  0
 -441.8578-1011.1533 -335.2670 H   0  0  0  0  0  0  0  0  0  0  0  0
 -440.9456-1011.9896 -336.1894 H   0  0  0  0  0  0  0  0  0  0  0  0
 -442.3073-1012.0490 -337.0273 H   0  0  0  0  0  0  0  0  0  0  0  0
 -441.1784-1013.2398 -335.8585 H   0  0  0  0  0  0  0  0  0  0  0  0
 -441.8619-1012.5558 -334.0804 H   0  0  0  0  0  0  0  0  0  0  0  0
 -443.4777-1013.0381 -334.9580 H   0  0  0  0  0  0  0  0  0  0  0  0
 -444.9999-1014.1517 -337.4932 H   0  0  0  0  0  0  0  0  0  0  0  0
 -444.2873-1012.6331 -337.3513 H   0  0  0  0  0  0  0  0  0  0  0  0
 -443.9618-1014.4329 -335.3645 H   0  0  0  0  0  0  0  0  0  0  0  0
 -445.5813-1014.2694 -335.4216 H   0  0  0  0  0  0  0  0  0  0  0  0
 -446.4131-1013.2773 -337.9684 H   0  0  0  0  0  0  0  0  0  0  0  0
 -447.7631-1013.4055 -336.8789 H   0  0  0  0  0  0  0  0  0  0  0  0
 -448.1615-1014.2580 -335.7077 H   0  0  0  0  0  0  0  0  0  0  0  0
 -446.8872-1015.0991 -336.0015 H   0  0  0  0  0  0  0  0  0  0  0  0
 -448.3723-1014.8463 -338.5541 H   0  0  0  0  0  0  0  0  0  0  0  0
 -449.3339-1013.9056 -337.4330 H   0  0  0  0  0  0  0  0  0  0  0  0
 -449.9964-1015.3605 -336.1011 H   0  0  0  0  0  0  0  0  0  0  0  0
 -449.0463-1016.8891 -336.4989 H   0  0  0  0  0  0  0  0  0  0  0  0
 -450.3977-1017.6514 -338.9082 H   0  0  0  0  0  0  0  0  0  0  0  0
 -450.7467-1015.7504 -338.9501 H   0  0  0  0  0  0  0  0  0  0  0  0
 -450.5535-1019.1187 -335.7733 H   0  0  0  0  0  0  0  0  0  0  0  0
 -452.5342-1016.8328 -337.4864 H   0  0  0  0  0  0  0  0  0  0  0  0
 -453.2734-1015.7386 -337.2173 H   0  0  0  0  0  0  0  0  0  0  0  0
 -453.4865-1017.0211 -338.5203 H   0  0  0  0  0  0  0  0  0  0  0  0
 -454.1581-1018.1514 -337.5256 H   0  0  0  0  0  0  0  0  0  0  0  0
 -452.7649-1019.1763 -337.0097 H   0  0  0  0  0  0  0  0  0  0  0  0
 -455.1099-1019.9829 -334.8124 H   0  0  0  0  0  0  0  0  0  0  0  0
 -452.7693-1020.1453 -336.0074 H   0  0  0  0  0  0  0  0  0  0  0  0
 -455.3608-1020.4254 -337.3636 H   0  0  0  0  0  0  0  0  0  0  0  0
 -456.3848-1019.0009 -337.9506 H   0  0  0  0  0  0  0  0  0  0  0  0
 -459.2382-1019.3862 -339.6768 H   0  0  0  0  0  0  0  0  0  0  0  0
 -458.4850-1020.7897 -341.4801 H   0  0  0  0  0  0  0  0  0  0  0  0
 -458.6919-1020.2459 -338.3785 H   0  0  0  0  0  0  0  0  0  0  0  0
 -457.4092-1021.4081 -338.0454 H   0  0  0  0  0  0  0  0  0  0  0  0
 -458.4489-1021.6986 -340.6511 H   0  0  0  0  0  0  0  0  0  0  0  0
 -459.3134-1020.3136 -340.3659 H   0  0  0  0  0  0  0  0  0  0  0  0
 -460.4882-1021.5132 -338.5132 H   0  0  0  0  0  0  0  0  0  0  0  0
 -459.4746-1022.8988 -338.8729 H   0  0  0  0  0  0  0  0  0  0  0  0
 -461.3945-1021.4238 -340.7371 H   0  0  0  0  0  0  0  0  0  0  0  0
 -461.7845-1022.8094 -339.8656 H   0  0  0  0  0  0  0  0  0  0  0  0
 -461.6163-1024.2665 -339.6417 H   0  0  0  0  0  0  0  0  0  0  0  0
 -462.8688-1023.2061 -340.3524 H   0  0  0  0  0  0  0  0  0  0  0  0
 -463.3932-1023.0451 -338.1685 H   0  0  0  0  0  0  0  0  0  0  0  0
 -462.9358-1025.4619 -338.2800 H   0  0  0  0  0  0  0  0  0  0  0  0
 -463.4485-1025.4591 -339.8542 H   0  0  0  0  0  0  0  0  0  0  0  0
 -464.7329-1023.7359 -340.8181 H   0  0  0  0  0  0  0  0  0  0  0  0
 -465.9617-1023.7217 -340.6781 H   0  0  0  0  0  0  0  0  0  0  0  0
 -465.0969-1022.7116 -339.7232 H   0  0  0  0  0  0  0  0  0  0  0  0
 -465.7663-1026.2047 -339.8635 H   0  0  0  0  0  0  0  0  0  0  0  0
 -466.5791-1025.8756 -341.2401 H   0  0  0  0  0  0  0  0  0  0  0  0
 -468.2409-1026.4614 -339.9580 H   0  0  0  0  0  0  0  0  0  0  0  0
 -466.8008-1027.8563 -340.1688 H   0  0  0  0  0  0  0  0  0  0  0  0
 -467.6802-1024.9880 -340.2050 H   0  0  0  0  0  0  0  0  0  0  0  0
 -468.7675-1026.1063 -340.9284 H   0  0  0  0  0  0  0  0  0  0  0  0
 -470.6505-1027.0680 -341.2282 H   0  0  0  0  0  0  0  0  0  0  0  0
 -469.5758-1027.0436 -342.5500 H   0  0  0  0  0  0  0  0  0  0  0  0
 -471.1311-1027.8183 -340.5256 H   0  0  0  0  0  0  0  0  0  0  0  0
 -469.9981-1029.0865 -340.9529 H   0  0  0  0  0  0  0  0  0  0  0  0
 -472.2779-1026.9050 -342.9643 H   0  0  0  0  0  0  0  0  0  0  0  0
 -470.6707-1027.2299 -342.7626 H   0  0  0  0  0  0  0  0  0  0  0  0
 -472.6724-1030.0513 -343.8250 H   0  0  0  0  0  0  0  0  0  0  0  0
 -474.8413-1028.3925 -341.6869 H   0  0  0  0  0  0  0  0  0  0  0  0
 -473.4162-1031.3229 -342.1899 H   0  0  0  0  0  0  0  0  0  0  0  0
 -474.6254-1031.3184 -341.0849 H   0  0  0  0  0  0  0  0  0  0  0  0
 -475.2092-1030.2147 -341.5762 H   0  0  0  0  0  0  0  0  0  0  0  0
 -474.4948-1031.4055 -342.2755 H   0  0  0  0  0  0  0  0  0  0  0  0
 -475.4098-1029.9749 -344.4849 H   0  0  0  0  0  0  0  0  0  0  0  0
 -476.4889-1031.0604 -343.6813 H   0  0  0  0  0  0  0  0  0  0  0  0
 -476.5689-1031.6251 -341.8136 H   0  0  0  0  0  0  0  0  0  0  0  0
 -476.7587-1032.8756 -343.0054 H   0  0  0  0  0  0  0  0  0  0  0  0
 -478.2919-1031.6997 -344.5694 H   0  0  0  0  0  0  0  0  0  0  0  0
 -476.5508-1031.8255 -345.2919 H   0  0  0  0  0  0  0  0  0  0  0  0
 -478.5259-1033.9688 -342.8975 H   0  0  0  0  0  0  0  0  0  0  0  0
 -479.7927-1033.2670 -343.7764 H   0  0  0  0  0  0  0  0  0  0  0  0
 -480.9992-1032.5337 -343.4319 H   0  0  0  0  0  0  0  0  0  0  0  0
 -480.4903-1033.2072 -345.0321 H   0  0  0  0  0  0  0  0  0  0  0  0
 -481.1800-1034.0686 -342.8753 H   0  0  0  0  0  0  0  0  0  0  0  0
 -480.5188-1035.3610 -343.9197 H   0  0  0  0  0  0  0  0  0  0  0  0
 -482.5886-1033.0953 -344.1642 H   0  0  0  0  0  0  0  0  0  0  0  0
 -482.8327-1034.2271 -342.8917 H   0  0  0  0  0  0  0  0  0  0  0  0
 -482.9886-1035.7767 -343.1128 H   0  0  0  0  0  0  0  0  0  0  0  0
 -483.8494-1035.2379 -344.3608 H   0  0  0  0  0  0  0  0  0  0  0  0
 -484.1667-1036.3006 -342.3082 H   0  0  0  0  0  0  0  0  0  0  0  0
 -484.5359-1035.1697 -345.7091 H   0  0  0  0  0  0  0  0  0  0  0  0
 -485.7056-1036.0591 -344.8036 H   0  0  0  0  0  0  0  0  0  0  0  0
 -485.2719-1037.6292 -344.0933 H   0  0  0  0  0  0  0  0  0  0  0  0
 -485.5303-1034.8125 -345.5540 H   0  0  0  0  0  0  0  0  0  0  0  0
 -483.6762-1035.4092 -346.3541 H   0  0  0  0  0  0  0  0  0  0  0  0
 -486.7890-1038.4168 -345.6739 H   0  0  0  0  0  0  0  0  0  0  0  0
 -485.5895-1038.9304 -347.1774 H   0  0  0  0  0  0  0  0  0  0  0  0
 -486.8028-1039.0588 -346.4737 H   0  0  0  0  0  0  0  0  0  0  0  0
 -488.5881-1037.8196 -346.9457 H   0  0  0  0  0  0  0  0  0  0  0  0
 -489.8563-1039.4438 -345.5516 H   0  0  0  0  0  0  0  0  0  0  0  0
 -488.7360-1039.3876 -344.1155 H   0  0  0  0  0  0  0  0  0  0  0  0
 -491.1496-1037.7841 -346.8220 H   0  0  0  0  0  0  0  0  0  0  0  0
 -489.5484-1037.1768 -347.0064 H   0  0  0  0  0  0  0  0  0  0  0  0
 -489.8809-1041.0458 -348.1136 H   0  0  0  0  0  0  0  0  0  0  0  0
 -489.7563-1040.3353 -349.1722 H   0  0  0  0  0  0  0  0  0  0  0  0
 -492.1304-1041.0907 -348.4669 H   0  0  0  0  0  0  0  0  0  0  0  0
 -493.9986-1039.8654 -346.9641 H   0  0  0  0  0  0  0  0  0  0  0  0
 -492.4005-1042.1132 -345.2691 H   0  0  0  0  0  0  0  0  0  0  0  0
 -493.2745-1041.0585 -346.1794 H   0  0  0  0  0  0  0  0  0  0  0  0
 -490.5904-1040.1121 -347.1457 H   0  0  0  0  0  0  0  0  0  0  0  0
 -490.8688-1039.3920 -347.0694 H   0  0  0  0  0  0  0  0  0  0  0  0
 -486.1168-1037.7821 -346.4718 H   0  0  0  0  0  0  0  0  0  0  0  0
 -486.0823-1037.8112 -346.5311 H   0  0  0  0  0  0  0  0  0  0  0  0
 -481.3416-1034.9524 -345.2878 H   0  0  0  0  0  0  0  0  0  0  0  0
 -481.3620-1034.9319 -345.2476 H   0  0  0  0  0  0  0  0  0  0  0  0
 -475.9490-1032.0066 -344.0548 H   0  0  0  0  0  0  0  0  0  0  0  0
 -475.9663-1031.9868 -344.0362 H   0  0  0  0  0  0  0  0  0  0  0  0
 -470.5001-1028.8180 -342.7459 H   0  0  0  0  0  0  0  0  0  0  0  0
 -470.4941-1028.8216 -342.7645 H   0  0  0  0  0  0  0  0  0  0  0  0
 -464.7164-1025.4279 -341.5686 H   0  0  0  0  0  0  0  0  0  0  0  0
 -464.7652-1025.3080 -341.6255 H   0  0  0  0  0  0  0  0  0  0  0  0
 -455.3433-1019.5876 -339.0010 H   0  0  0  0  0  0  0  0  0  0  0  0
 -455.3287-1019.5745 -339.0720 H   0  0  0  0  0  0  0  0  0  0  0  0
  1  2  1  0  0  0  0
  1 77  1  0  0  0  0
  1 78  1  0  0  0  0
  1 79  1  0  0  0  0
  2  3  2  3  0  0  0
  2 76  1  0  0  0  0
  3  4  1  0  0  0  0
  3 80  1  0  0  0  0
  4  5  2  3  0  0  0
  4 81  1  0  0  0  0
  5  6  1  0  0  0  0
  5 82  1  0  0  0  0
  6  7  1  0  0  0  0
  6 83  1  0  0  0  0
  6 84  1  0  0  0  0
  7  8  1  0  0  0  0
  7 85  1  0  0  0  0
  7 86  1  0  0  0  0
  8  9  1  0  0  0  0
  8 87  1  0  0  0  0
  8 88  1  0  0  0  0
  9 10  1  0  0  0  0
  9 89  1  0  0  0  0
  9 90  1  0  0  0  0
 10 11  1  0  0  0  0
 10 91  1  0  0  0  0
 10 92  1  0  0  0  0
 11 12  1  0  0  0  0
 11 93  1  0  0  0  0
 11 94  1  0  0  0  0
 12 13  1  0  0  0  0
 12 95  1  0  0  0  0
 12 96  1  0  0  0  0
 13 14  1  0  0  0  0
 13 97  1  0  0  0  0
 13 98  1  0  0  0  0
 14 15  1  0  0  0  0
 14 99  1  0  0  0  0
 14100  1  0  0  0  0
 15 16  1  0  0  0  0
 15101  1  0  0  0  0
 15102  1  0  0  0  0
 16 17  1  0  0  0  0
 16103  1  0  0  0  0
 16104  1  0  0  0  0
 17 18  1  0  0  0  0
 17105  1  0  0  0  0
 17106  1  0  0  0  0
 18 19  1  0  0  0  0
 18107  1  0  0  0  0
 18108  1  0  0  0  0
 19 20  1  0  0  0  0
 19109  1  0  0  0  0
 19110  1  0  0  0  0
 20 21  1  0  0  0  0
 20111  1  0  0  0  0
 20112  1  0  0  0  0
 21 22  1  0  0  0  0
 21113  1  0  0  0  0
 21114  1  0  0  0  0
 22 23  1  0  0  0  0
 22115  1  0  0  0  0
 22116  1  0  0  0  0
 23 24  1  0  0  0  0
 23117  1  0  0  0  0
 23118  1  0  0  0  0
 24 25  1  0  0  0  0
 24119  1  0  0  0  0
 24120  1  0  0  0  0
 25 26  1  0  0  0  0
 25121  1  0  0  0  0
 25122  1  0  0  0  0
 26 27  1  0  0  0  0
 26123  1  0  0  0  0
 26124  1  0  0  0  0
 27 28  1  0  0  0  0
 27125  1  0  0  0  0
 27126  1  0  0  0  0
 28 29  1  0  0  0  0
 28127  1  0  0  0  0
 28128  1  0  0  0  0
 29 30  1  0  0  0  0
 29129  1  0  0  0  0
 29130  1  0  0  0  0
 30 31  1  0  0  0  0
 30131  1  0  0  0  0
 30132  1  0  0  0  0
 31 32  1  0  0  0  0
 31133  1  0  0  0  0
 31134  1  0  0  0  0
 32 33  1  0  0  0  0
 32135  1  0  0  0  0
 32136  1  0  0  0  0
 33 34  1  0  0  0  0
 33137  1  0  0  0  0
 33138  1  0  0  0  0
 34 35  1  0  0  0  0
 34139  1  0  0  0  0
 34140  1  0  0  0  0
 35 36  1  0  0  0  0
 35141  1  0  0  0  0
 35142  1  0  0  0  0
 36 37  1  0  0  0  0
 36143  1  0  0  0  0
 36144  1  0  0  0  0
 37 38  1  0  0  0  0
 37145  1  0  0  0  0
 37146  1  0  0  0  0
 38 39  1  0  0  0  0
 38147  1  0  0  0  0
 38148  1  0  0  0  0
 39 40  1  0  0  0  0
 39149  1  0  0  0  0
 39150  1  0  0  0  0
 40 41  1  0  0  0  0
 40151  1  0  0  0  0
 40152  1  0  0  0  0
 41 42  1  0  0  0  0
 41153  1  0  0  0  0
 41154  1  0  0  0  0
 42 43  1  0  0  0  0
 42155  1  0  0  0  0
 42156  1  0  0  0  0
 43 44  1  0  0  0  0
 43157  1  0  0  0  0
 43158  1  0  0  0  0
 44 45  1  0  0  0  0
 44159  1  0  0  0  0
 44160  1  0  0  0  0
 45 46  1  0  0  0  0
 45161  1  0  0  0  0
 45162  1  0  0  0  0
 46 47  1  0  0  0  0
 46163  1  0  0  0  0
 46164  1  0  0  0  0
 47 48  1  0  0  0  0
 47165  1  0  0  0  0
 47166  1  0  0  0  0
 48 49  1  0  0  0  0
 48167  1  0  0  0  0
 48168  1  0  0  0  0
 49 50  1  0  0  0  0
 49169  1  0  0  0  0
 49170  1  0  0  0  0
 50 51  1  0  0  0  0
 50171  1  0  0  0  0
 50172  1  0  0  0  0
 51 52  1  0  0  0  0
 51173  1  0  0  0  0
 51174  1  0  0  0  0
 52 53  1  0  0  0  0
 52175  1  0  0  0  0
 52176  1  0  0  0  0
 53 54  1  0  0  0  0
 53177  1  0  0  0  0
 53178  1  0  0  0  0
 54 55  1  0  0  0  0
 54179  1  0  0  0  0
 54180  1  0  0  0  0
 55 56  1  0  0  0  0
 55181  1  0  0  0  0
 55182  1  0  0  0  0
 56 57  1  0  0  0  0
 56183  1  0  0  0  0
 56184  1  0  0  0  0
 57 58  1  0  0  0  0
 57185  1  0  0  0  0
 57186  1  0  0  0  0
 58 59  1  0  0  0  0
 58187  1  0  0  0  0
 58188  1  0  0  0  0
 59 60  1  0  0  0  0
 59189  1  0  0  0  0
 59190  1  0  0  0  0
 60 61  1  0  0  0  0
 60191  1  0  0  0  0
 60192  1  0  0  0  0
 61 62  1  0  0  0  0
 61193  1  0  0  0  0
 61194  1  0  0  0  0
 62 63  1  0  0  0  0
 62195  1  0  0  0  0
 62196  1  0  0  0  0
 63 64  1  0  0  0  0
 63197  1  0  0  0  0
 63198  1  0  0  0  0
 64 65  1  0  0  0  0
 64199  1  0  0  0  0
 64200  1  0  0  0  0
 65 66  1  0  0  0  0
 65201  1  0  0  0  0
 65202  1  0  0  0  0
 66 67  1  0  0  0  0
 66203  1  0  0  0  0
 66204  1  0  0  0  0
 67 68  1  0  0  0  0
 67205  1  0  0  0  0
 67206  1  0  0  0  0
 68 69  1  0  0  0  0
 68207  1  0  0  0  0
 68208  1  0  0  0  0
 69 70  1  0  0  0  0
 69209  1  0  0  0  0
 69210  1  0  0  0  0
 70 71  1  0  0  0  0
 70211  1  0  0  0  0
 70212  1  0  0  0  0
 71 72  1  0  0  0  0
 71213  1  0  0  0  0
 71214  1  0  0  0  0
 72 73  1  0  0  0  0
 72215  1  0  0  0  0
 72216  1  0  0  0  0
 73 74  1  0  0  0  0
 73217  1  0  0  0  0
 73218  1  0  0  0  0
 74 75  1  0  0  0  0
 74219  1  0  0  0  0
 74220  1  0  0  0  0
 75 76  1  0  0  0  0
 75221  1  0  0  0  0
 75222  1  0  0  0  0
 76223  1  0  0  0  0
 76224  1  0  0  0  0
M  END
$$$$
