
 OpenBabel04232216423D

 63 65  0  0  0  0  0  0  0  0999 V2000
    1.8987   -4.5207   -3.1479 C   0  0  0  0  0  0  0  0  0  0  0  0
    1.1119   -3.4184   -2.5940 C   0  0  0  0  0  0  0  0  0  0  0  0
    0.7558   -3.5395   -1.2911 C   0  0  0  0  0  0  0  0  0  0  0  0
    1.6836   -2.8724   -0.3832 C   0  0  0  0  0  0  0  0  0  0  0  0
    1.6294   -1.4074   -0.0872 C   0  0  0  0  0  0  0  0  0  0  0  0
    0.4849   -0.4199    0.0467 C   0  0  0  0  0  0  0  0  0  0  0  0
    1.0515    0.9878    0.4338 C   0  0  0  0  0  0  0  0  0  0  0  0
   -0.1416    1.9174    0.5486 C   0  0  0  0  0  0  0  0  0  0  0  0
    0.1422    3.3692    0.9023 C   0  0  0  0  0  0  0  0  0  0  0  0
   -1.2168    4.0692    0.9429 C   0  0  0  0  0  0  0  0  0  0  0  0
   -1.1177    5.5430    1.2815 C   0  0  0  0  0  0  0  0  0  0  0  0
   -2.5158    6.1560    1.3019 C   0  0  0  0  0  0  0  0  0  0  0  0
   -2.4544    7.6334    1.6375 C   0  0  0  0  0  0  0  0  0  0  0  0
    2.8827   -3.5169   -0.2954 C   0  0  0  0  0  0  0  0  0  0  0  0
    4.0380   -3.1430   -1.1633 C   0  0  0  0  0  0  0  0  0  0  0  0
    5.0077   -2.0940   -0.6160 C   0  0  0  0  0  0  0  0  0  0  0  0
    5.1899   -2.2104    0.8793 C   0  0  0  0  0  0  0  0  0  0  0  0
    6.1291   -1.2345    1.5270 C   0  0  0  0  0  0  0  0  0  0  0  0
    7.0086   -0.2123    1.0985 N   0  0  0  0  0  0  0  0  0  0  0  0
    7.2609    0.0529    2.3054 C   0  0  0  0  0  0  0  0  0  0  0  0
    6.4297   -0.9626    2.8037 C   0  0  0  0  0  0  0  0  0  0  0  0
    6.0167   -1.5674    4.1331 C   0  0  0  0  0  0  0  0  0  0  0  0
    4.2601   -3.8984   -2.2816 C   0  0  0  0  0  0  0  0  0  0  0  0
    5.6589   -4.1201   -2.7159 C   0  0  0  0  0  0  0  0  0  0  0  0
    6.0104   -5.3229   -3.2067 C   0  0  0  0  0  0  0  0  0  0  0  0
    5.0217   -6.3502   -3.4667 C   0  0  0  0  0  0  0  0  0  0  0  0
    3.7049   -6.0887   -3.4124 C   0  0  0  0  0  0  0  0  0  0  0  0
    3.2213   -4.7763   -2.9538 C   0  0  0  0  0  0  0  0  0  0  0  0
    1.2808   -5.2255   -3.6952 H   0  0  0  0  0  0  0  0  0  0  0  0
    1.4083   -2.4387   -2.9706 H   0  0  0  0  0  0  0  0  0  0  0  0
    0.5455   -4.5476   -0.9099 H   0  0  0  0  0  0  0  0  0  0  0  0
    2.0185   -1.4162    0.9381 H   0  0  0  0  0  0  0  0  0  0  0  0
    2.2691   -0.9607   -0.8519 H   0  0  0  0  0  0  0  0  0  0  0  0
   -0.2176   -0.7327    0.8291 H   0  0  0  0  0  0  0  0  0  0  0  0
   -0.0670   -0.3306   -0.8939 H   0  0  0  0  0  0  0  0  0  0  0  0
    1.7559    1.3604   -0.3229 H   0  0  0  0  0  0  0  0  0  0  0  0
    1.6035    0.9582    1.3843 H   0  0  0  0  0  0  0  0  0  0  0  0
   -0.8185    1.5061    1.3069 H   0  0  0  0  0  0  0  0  0  0  0  0
   -0.6757    1.8969   -0.4087 H   0  0  0  0  0  0  0  0  0  0  0  0
    0.7914    3.8385    0.1532 H   0  0  0  0  0  0  0  0  0  0  0  0
    0.6423    3.4498    1.8752 H   0  0  0  0  0  0  0  0  0  0  0  0
   -1.8585    3.5693    1.6815 H   0  0  0  0  0  0  0  0  0  0  0  0
   -1.7115    3.9538   -0.0310 H   0  0  0  0  0  0  0  0  0  0  0  0
   -0.4941    6.0530    0.5381 H   0  0  0  0  0  0  0  0  0  0  0  0
   -0.6373    5.6678    2.2589 H   0  0  0  0  0  0  0  0  0  0  0  0
   -3.1405    5.6395    2.0406 H   0  0  0  0  0  0  0  0  0  0  0  0
   -2.9971    6.0233    0.3255 H   0  0  0  0  0  0  0  0  0  0  0  0
   -2.0032    7.7866    2.6224 H   0  0  0  0  0  0  0  0  0  0  0  0
   -3.4607    8.0599    1.6482 H   0  0  0  0  0  0  0  0  0  0  0  0
   -1.8579    8.1728    0.8956 H   0  0  0  0  0  0  0  0  0  0  0  0
    2.8473   -4.6154   -0.3067 H   0  0  0  0  0  0  0  0  0  0  0  0
    4.6287   -1.0984   -0.8856 H   0  0  0  0  0  0  0  0  0  0  0  0
    5.9979   -2.1345   -1.0787 H   0  0  0  0  0  0  0  0  0  0  0  0
    5.4973   -3.2211    1.1632 H   0  0  0  0  0  0  0  0  0  0  0  0
    4.2268   -2.0989    1.4080 H   0  0  0  0  0  0  0  0  0  0  0  0
    7.9144    0.7586    2.8729 H   0  0  0  0  0  0  0  0  0  0  0  0
    6.4382   -1.0578    4.9956 H   0  0  0  0  0  0  0  0  0  0  0  0
    6.2436   -2.6376    4.1180 H   0  0  0  0  0  0  0  0  0  0  0  0
    4.9135   -1.6051    4.2180 H   0  0  0  0  0  0  0  0  0  0  0  0
    6.4451   -3.4023   -2.5173 H   0  0  0  0  0  0  0  0  0  0  0  0
    7.0529   -5.5606   -3.3957 H   0  0  0  0  0  0  0  0  0  0  0  0
    5.3773   -7.3432   -3.7190 H   0  0  0  0  0  0  0  0  0  0  0  0
    2.9786   -6.8664   -3.6170 H   0  0  0  0  0  0  0  0  0  0  0  0
  1  2  1  0  0  0  0
  1 28  2  0  0  0  0
  1 29  1  0  0  0  0
  2  3  2  0  0  0  0
  2 30  1  0  0  0  0
  3  4  1  0  0  0  0
  3 31  1  0  0  0  0
  4  5  1  0  0  0  0
  4 14  2  0  0  0  0
  5  6  1  0  0  0  0
  5 32  1  0  0  0  0
  5 33  1  0  0  0  0
  6  7  1  0  0  0  0
  6 34  1  0  0  0  0
  6 35  1  0  0  0  0
  7  8  1  0  0  0  0
  7 36  1  0  0  0  0
  7 37  1  0  0  0  0
  8  9  1  0  0  0  0
  8 38  1  0  0  0  0
  8 39  1  0  0  0  0
  9 10  1  0  0  0  0
  9 40  1  0  0  0  0
  9 41  1  0  0  0  0
 10 11  1  0  0  0  0
 10 42  1  0  0  0  0
 10 43  1  0  0  0  0
 11 12  1  0  0  0  0
 11 44  1  0  0  0  0
 11 45  1  0  0  0  0
 12 13  1  0  0  0  0
 12 46  1  0  0  0  0
 12 47  1  0  0  0  0
 13 48  1  0  0  0  0
 13 49  1  0  0  0  0
 13 50  1  0  0  0  0
 14 15  1  0  0  0  0
 14 51  1  0  0  0  0
 15 16  1  0  0  0  0
 15 23  2  0  0  0  0
 16 17  1  0  0  0  0
 16 52  1  0  0  0  0
 16 53  1  0  0  0  0
 17 18  1  0  0  0  0
 17 54  1  0  0  0  0
 17 55  1  0  0  0  0
 18 19  1  0  0  0  0
 18 21  2  0  0  0  0
 19 20  2  0  0  0  0
 20 21  1  0  0  0  0
 20 56  1  0  0  0  0
 21 22  1  0  0  0  0
 22 57  1  0  0  0  0
 22 58  1  0  0  0  0
 22 59  1  0  0  0  0
 23 24  1  0  0  0  0
 23 28  1  0  0  0  0
 24 25  2  0  0  0  0
 24 60  1  0  0  0  0
 25 26  1  0  0  0  0
 25 61  1  0  0  0  0
 26 27  2  0  0  0  0
 26 62  1  0  0  0  0
 27 28  1  0  0  0  0
 27 63  1  0  0  0  0
M  END
$$$$
