
 OpenBabel04232217033D

 59 58  0  0  0  0  0  0  0  0999 V2000
    8.6767    3.5986  -12.5838 S   0  0  0  0  0  0  0  0  0  0  0  0
   10.3354    3.4693  -12.5626 O   0  0  0  0  0  0  0  0  0  0  0  0
   10.8620    3.7605  -11.2416 O   0  0  0  0  0  0  0  0  0  0  0  0
   12.2943    3.5140  -11.2123 N   0  0  0  0  0  0  0  0  0  0  0  0
   12.7845    2.9777   -9.7289 S   0  0  0  0  0  0  0  0  0  0  0  0
   12.3357    1.3915   -9.6760 N   0  0  0  0  0  0  0  0  0  0  0  0
   12.7244    0.8133   -8.4384 N   0  0  0  0  0  0  0  0  0  0  0  0
   12.2413   -0.5190   -8.3177 N   0  0  0  0  0  0  0  0  0  0  0  0
   12.8168   -1.4137   -9.2699 N   0  0  0  0  0  0  0  0  0  0  0  0
   14.2472   -1.3802   -9.2371 N   0  0  0  0  0  0  0  0  0  0  0  0
   14.7378   -1.9374   -8.0106 N   0  0  0  0  0  0  0  0  0  0  0  0
   14.3094   -3.2988   -7.8588 N   0  0  0  0  0  0  0  0  0  0  0  0
   14.8235   -4.1135   -8.9275 N   0  0  0  0  0  0  0  0  0  0  0  0
   16.2571   -4.1360   -8.8978 N   0  0  0  0  0  0  0  0  0  0  0  0
   16.7334   -4.6597   -7.6436 N   0  0  0  0  0  0  0  0  0  0  0  0
   16.2410   -6.0015   -7.4483 N   0  0  0  0  0  0  0  0  0  0  0  0
   16.7055   -6.8607   -8.5008 N   0  0  0  0  0  0  0  0  0  0  0  0
   18.1416   -6.8522   -8.5697 N   0  0  0  0  0  0  0  0  0  0  0  0
   18.7043   -7.3141   -7.3276 N   0  0  0  0  0  0  0  0  0  0  0  0
   18.2886   -8.6556   -7.0492 N   0  0  0  0  0  0  0  0  0  0  0  0
   18.6795   -9.5539   -8.1050 N   0  0  0  0  0  0  0  0  0  0  0  0
   20.1106   -9.7025   -8.1328 N   0  0  0  0  0  0  0  0  0  0  0  0
   20.5532  -10.0977   -6.8289 N   0  0  0  0  0  0  0  0  0  0  0  0
   20.1711  -11.4600   -6.5938 N   0  0  0  0  0  0  0  0  0  0  0  0
   20.6346  -11.8651   -5.2824 C   0  0  0  0  0  0  0  0  0  0  0  0
   20.1419  -10.9959   -4.2489 O   0  0  0  0  0  0  0  0  0  0  0  0
   20.6191  -11.4210   -2.9791 C   0  0  0  0  0  0  0  0  0  0  0  0
   20.1173  -10.4639   -1.9056 C   0  0  0  0  0  0  0  0  0  0  0  0
   20.6058  -10.8953   -0.5304 C   0  0  0  0  0  0  0  0  0  0  0  0
    8.5541    4.4053  -13.6495 H   0  0  0  0  0  0  0  0  0  0  0  0
   12.6343    4.4599  -11.3560 H   0  0  0  0  0  0  0  0  0  0  0  0
   12.7876    0.8925  -10.4435 H   0  0  0  0  0  0  0  0  0  0  0  0
   12.3914    1.3889   -7.6561 H   0  0  0  0  0  0  0  0  0  0  0  0
   11.2170   -0.5540   -8.3518 H   0  0  0  0  0  0  0  0  0  0  0  0
   12.4704   -1.2384  -10.2166 H   0  0  0  0  0  0  0  0  0  0  0  0
   14.5644   -0.4059   -9.2947 H   0  0  0  0  0  0  0  0  0  0  0  0
   14.3685   -1.3821   -7.2283 H   0  0  0  0  0  0  0  0  0  0  0  0
   13.2823   -3.3047   -7.9006 H   0  0  0  0  0  0  0  0  0  0  0  0
   14.5466   -3.6634   -9.8046 H   0  0  0  0  0  0  0  0  0  0  0  0
   16.5640   -3.1652   -8.9993 H   0  0  0  0  0  0  0  0  0  0  0  0
   16.3417   -4.0634   -6.9018 H   0  0  0  0  0  0  0  0  0  0  0  0
   15.2200   -5.9518   -7.5523 H   0  0  0  0  0  0  0  0  0  0  0  0
   16.3220   -6.4661   -9.3657 H   0  0  0  0  0  0  0  0  0  0  0  0
   18.4251   -5.8731   -8.7034 H   0  0  0  0  0  0  0  0  0  0  0  0
   18.3387   -6.7038   -6.5879 H   0  0  0  0  0  0  0  0  0  0  0  0
   17.2733   -8.6812   -6.9638 H   0  0  0  0  0  0  0  0  0  0  0  0
   18.3509   -9.1474   -8.9862 H   0  0  0  0  0  0  0  0  0  0  0  0
   20.4816   -8.7599   -8.3141 H   0  0  0  0  0  0  0  0  0  0  0  0
   20.0028   -9.5045   -6.1774 H   0  0  0  0  0  0  0  0  0  0  0  0
   20.5639  -12.0492   -7.3220 H   0  0  0  0  0  0  0  0  0  0  0  0
   21.7301  -11.8843   -5.2591 H   0  0  0  0  0  0  0  0  0  0  0  0
   20.2655  -12.8772   -5.0920 H   0  0  0  0  0  0  0  0  0  0  0  0
   21.7176  -11.4307   -2.9837 H   0  0  0  0  0  0  0  0  0  0  0  0
   20.2551  -12.4336   -2.7770 H   0  0  0  0  0  0  0  0  0  0  0  0
   19.0213  -10.4262   -1.9230 H   0  0  0  0  0  0  0  0  0  0  0  0
   20.4601   -9.4453   -2.1250 H   0  0  0  0  0  0  0  0  0  0  0  0
   20.2437  -11.8999   -0.2906 H   0  0  0  0  0  0  0  0  0  0  0  0
   20.2434  -10.2075    0.2360 H   0  0  0  0  0  0  0  0  0  0  0  0
   21.6985  -10.9071   -0.4950 H   0  0  0  0  0  0  0  0  0  0  0  0
  1  2  1  0  0  0  0
  1 30  1  0  0  0  0
  2  3  1  0  0  0  0
  3  4  1  0  0  0  0
  4  5  1  0  0  0  0
  4 31  1  0  0  0  0
  5  6  1  0  0  0  0
  6  7  1  0  0  0  0
  6 32  1  0  0  0  0
  7  8  1  0  0  0  0
  7 33  1  0  0  0  0
  8  9  1  0  0  0  0
  8 34  1  0  0  0  0
  9 10  1  0  0  0  0
  9 35  1  0  0  0  0
 10 11  1  0  0  0  0
 10 36  1  0  0  0  0
 11 12  1  0  0  0  0
 11 37  1  0  0  0  0
 12 13  1  0  0  0  0
 12 38  1  0  0  0  0
 13 14  1  0  0  0  0
 13 39  1  0  0  0  0
 14 15  1  0  0  0  0
 14 40  1  0  0  0  0
 15 16  1  0  0  0  0
 15 41  1  0  0  0  0
 16 17  1  0  0  0  0
 16 42  1  0  0  0  0
 17 18  1  0  0  0  0
 17 43  1  0  0  0  0
 18 19  1  0  0  0  0
 18 44  1  0  0  0  0
 19 20  1  0  0  0  0
 19 45  1  0  0  0  0
 20 21  1  0  0  0  0
 20 46  1  0  0  0  0
 21 22  1  0  0  0  0
 21 47  1  0  0  0  0
 22 23  1  0  0  0  0
 22 48  1  0  0  0  0
 23 24  1  0  0  0  0
 23 49  1  0  0  0  0
 24 25  1  0  0  0  0
 24 50  1  0  0  0  0
 25 26  1  0  0  0  0
 25 51  1  0  0  0  0
 25 52  1  0  0  0  0
 26 27  1  0  0  0  0
 27 28  1  0  0  0  0
 27 53  1  0  0  0  0
 27 54  1  0  0  0  0
 28 29  1  0  0  0  0
 28 55  1  0  0  0  0
 28 56  1  0  0  0  0
 29 57  1  0  0  0  0
 29 58  1  0  0  0  0
 29 59  1  0  0  0  0
M  END
$$$$
