
 OpenBabel04232216433D

 66 66  0  0  0  0  0  0  0  0999 V2000
   12.8997   -2.2879   -5.3802 C   0  0  0  0  0  0  0  0  0  0  0  0
   10.8286   -1.8521   -4.6419 C   0  0  0  0  0  0  0  0  0  0  0  0
    9.1521   -1.5804   -3.9843 C   0  0  0  0  0  0  0  0  0  0  0  0
    7.8049   -1.1544   -2.5806 C   0  0  0  0  0  0  0  0  0  0  0  0
    6.8283   -1.9133   -2.0191 C   0  0  0  0  0  0  0  0  0  0  0  0
    7.6450   -2.8847   -1.3441 C   0  0  0  0  0  0  0  0  0  0  0  0
    7.9983   -3.7508   -2.3073 C   0  0  0  0  0  0  0  0  0  0  0  0
    9.3922   -3.8123   -2.4743 C   0  0  0  0  0  0  0  0  0  0  0  0
   10.0573   -4.4097   -3.4466 C   0  0  0  0  0  0  0  0  0  0  0  0
   11.4363   -4.3911   -3.1156 C   0  0  0  0  0  0  0  0  0  0  0  0
   12.4023   -4.8753   -3.8483 C   0  0  0  0  0  0  0  0  0  0  0  0
   13.7960   -4.5865   -3.4108 C   0  0  0  0  0  0  0  0  0  0  0  0
   14.4115   -3.2227   -2.7309 C   0  0  0  0  0  0  0  0  0  0  0  0
   14.1319   -2.9854   -1.2736 C   0  0  0  0  0  0  0  0  0  0  0  0
   14.4485   -5.5275   -3.9919 N   0  0  0  0  0  0  0  0  0  0  0  0
   15.7271   -5.4358   -4.2841 C   0  0  0  0  0  0  0  0  0  0  0  0
   16.1041   -6.1670   -5.3179 C   0  0  0  0  0  0  0  0  0  0  0  0
   17.4750   -6.3899   -5.3718 C   0  0  0  0  0  0  0  0  0  0  0  0
   17.9243   -7.2099   -6.2989 C   0  0  0  0  0  0  0  0  0  0  0  0
   19.3183   -7.4035   -6.2456 C   0  0  0  0  0  0  0  0  0  0  0  0
   19.8014   -8.2386   -7.1281 C   0  0  0  0  0  0  0  0  0  0  0  0
   21.0297   -8.7363   -7.2156 N   0  0  0  0  0  0  0  0  0  0  0  0
   22.1707   -8.1777   -6.8162 C   0  0  0  0  0  0  0  0  0  0  0  0
   23.8315   -8.1577   -6.8347 C   0  0  0  0  0  0  0  0  0  0  0  0
   24.9124   -7.0668   -6.4912 C   0  0  0  0  0  0  0  0  0  0  0  0
   23.8454   -8.0549   -8.1728 C   0  0  0  0  0  0  0  0  0  0  0  0
   23.1818   -6.4123   -8.3250 C   0  0  0  0  0  0  0  0  0  0  0  0
   21.5577   -5.9143   -8.3679 C   0  0  0  0  0  0  0  0  0  0  0  0
   19.8838   -4.9297   -7.7325 C   0  0  0  0  0  0  0  0  0  0  0  0
   18.1827   -4.5164   -7.2897 C   0  0  0  0  0  0  0  0  0  0  0  0
   16.4550   -3.7466   -6.7388 C   0  0  0  0  0  0  0  0  0  0  0  0
   14.7996   -3.1827   -5.8604 C   0  0  0  0  0  0  0  0  0  0  0  0
   12.7026   -2.9518   -4.3041 H   0  0  0  0  0  0  0  0  0  0  0  0
   13.0286   -1.4311   -4.7019 H   0  0  0  0  0  0  0  0  0  0  0  0
   10.9702   -1.6148   -3.5414 H   0  0  0  0  0  0  0  0  0  0  0  0
    8.1627   -1.3336   -4.4528 H   0  0  0  0  0  0  0  0  0  0  0  0
    7.4417   -0.2906   -1.9404 H   0  0  0  0  0  0  0  0  0  0  0  0
    5.8887   -2.5477   -2.2595 H   0  0  0  0  0  0  0  0  0  0  0  0
    8.3953   -2.3452   -0.7233 H   0  0  0  0  0  0  0  0  0  0  0  0
    7.3649   -3.8236   -3.2057 H   0  0  0  0  0  0  0  0  0  0  0  0
    9.9594   -3.0757   -1.8833 H   0  0  0  0  0  0  0  0  0  0  0  0
    9.5798   -4.7641   -4.3573 H   0  0  0  0  0  0  0  0  0  0  0  0
   11.7610   -3.8239   -2.2573 H   0  0  0  0  0  0  0  0  0  0  0  0
   12.1924   -5.2452   -4.8586 H   0  0  0  0  0  0  0  0  0  0  0  0
   14.1345   -2.2804   -3.2231 H   0  0  0  0  0  0  0  0  0  0  0  0
   15.5052   -3.2089   -2.8501 H   0  0  0  0  0  0  0  0  0  0  0  0
   13.0987   -2.6668   -1.1317 H   0  0  0  0  0  0  0  0  0  0  0  0
   14.7577   -2.1789   -0.8608 H   0  0  0  0  0  0  0  0  0  0  0  0
   14.3345   -3.9056   -0.7360 H   0  0  0  0  0  0  0  0  0  0  0  0
   16.4099   -4.6753   -3.9048 H   0  0  0  0  0  0  0  0  0  0  0  0
   15.4222   -6.6250   -6.0299 H   0  0  0  0  0  0  0  0  0  0  0  0
   18.1505   -5.8589   -4.7042 H   0  0  0  0  0  0  0  0  0  0  0  0
   17.2894   -7.5069   -7.1457 H   0  0  0  0  0  0  0  0  0  0  0  0
   19.9514   -6.7676   -5.6311 H   0  0  0  0  0  0  0  0  0  0  0  0
   19.1680   -8.4250   -8.0046 H   0  0  0  0  0  0  0  0  0  0  0  0
   22.2053   -8.8174   -7.7293 H   0  0  0  0  0  0  0  0  0  0  0  0
   24.5299   -6.1721   -6.0016 H   0  0  0  0  0  0  0  0  0  0  0  0
   25.4592   -6.6013   -7.3703 H   0  0  0  0  0  0  0  0  0  0  0  0
   25.7868   -7.5732   -6.0795 H   0  0  0  0  0  0  0  0  0  0  0  0
   23.7387   -9.0693   -8.6960 H   0  0  0  0  0  0  0  0  0  0  0  0
   24.1869   -6.7233   -8.9771 H   0  0  0  0  0  0  0  0  0  0  0  0
   21.5385   -6.8028   -9.2534 H   0  0  0  0  0  0  0  0  0  0  0  0
   19.9289   -6.0645   -8.1183 H   0  0  0  0  0  0  0  0  0  0  0  0
   18.0427   -5.5780   -7.6153 H   0  0  0  0  0  0  0  0  0  0  0  0
   17.0064   -3.8261   -5.7590 H   0  0  0  0  0  0  0  0  0  0  0  0
   14.9143   -3.2937   -4.9042 H   0  0  0  0  0  0  0  0  0  0  0  0
  1  2  1  0  0  0  0
  1 32  1  0  0  0  0
  1 33  1  0  0  0  0
  1 34  1  0  0  0  0
  2  3  2  3  0  0  0
  2 35  1  0  0  0  0
  3  4  1  0  0  0  0
  3 36  1  0  0  0  0
  4  5  2  3  0  0  0
  4 37  1  0  0  0  0
  5  6  1  0  0  0  0
  5 38  1  0  0  0  0
  6  7  2  3  0  0  0
  6 39  1  0  0  0  0
  7  8  1  0  0  0  0
  7 40  1  0  0  0  0
  8  9  2  3  0  0  0
  8 41  1  0  0  0  0
  9 10  1  0  0  0  0
  9 42  1  0  0  0  0
 10 11  2  3  0  0  0
 10 43  1  0  0  0  0
 11 12  1  0  0  0  0
 11 44  1  0  0  0  0
 12 13  1  0  0  0  0
 12 15  2  3  0  0  0
 13 14  1  0  0  0  0
 13 45  1  0  0  0  0
 13 46  1  0  0  0  0
 14 47  1  0  0  0  0
 14 48  1  0  0  0  0
 14 49  1  0  0  0  0
 15 16  1  0  0  0  0
 16 17  2  3  0  0  0
 16 50  1  0  0  0  0
 17 18  1  0  0  0  0
 17 51  1  0  0  0  0
 18 19  2  3  0  0  0
 18 52  1  0  0  0  0
 19 20  1  0  0  0  0
 19 53  1  0  0  0  0
 20 21  2  3  0  0  0
 20 54  1  0  0  0  0
 21 22  1  0  0  0  0
 21 55  1  0  0  0  0
 22 23  2  3  0  0  0
 23 24  1  0  0  0  0
 23 56  1  0  0  0  0
 24 25  1  0  0  0  0
 24 26  2  3  0  0  0
 25 57  1  0  0  0  0
 25 58  1  0  0  0  0
 25 59  1  0  0  0  0
 26 27  1  0  0  0  0
 26 60  1  0  0  0  0
 27 28  2  3  0  0  0
 27 61  1  0  0  0  0
 28 29  1  0  0  0  0
 28 62  1  0  0  0  0
 29 30  2  3  0  0  0
 29 63  1  0  0  0  0
 30 31  1  0  0  0  0
 30 64  1  0  0  0  0
 31 32  2  3  0  0  0
 31 65  1  0  0  0  0
 32 66  1  0  0  0  0
M  END
$$$$
