
 OpenBabel04232216583D

168167  0  0  0  0  0  0  0  0999 V2000
   31.1129  -17.3360   27.2106 N   0  0  0  0  0  0  0  0  0  0  0  0
   30.6438  -18.0525   26.0675 N   0  0  0  0  0  0  0  0  0  0  0  0
   29.1888  -17.9229   26.0184 C   0  0  0  0  0  0  0  0  0  0  0  0
   28.6492  -18.6624   24.7950 C   0  0  0  0  0  0  0  0  0  0  0  0
   27.1839  -18.5881   24.7021 N   0  0  0  0  0  0  0  0  0  0  0  0
   26.8218  -17.2207   24.6153 N   0  0  0  0  0  0  0  0  0  0  0  0
   25.4156  -17.0798   24.5681 N   0  0  0  0  0  0  0  0  0  0  0  0
   25.0389  -15.7095   24.4433 N   0  0  0  0  0  0  0  0  0  0  0  0
   25.6159  -15.1115   23.2653 N   0  0  0  0  0  0  0  0  0  0  0  0
   25.1313  -15.8487   22.0717 C   0  0  0  0  0  0  0  0  0  0  0  0
   25.7475  -15.2666   20.8096 C   0  0  0  0  0  0  0  0  0  0  0  0
   25.2602  -16.0099   19.6548 N   0  0  0  0  0  0  0  0  0  0  0  0
   25.8287  -15.4290   18.4998 N   0  0  0  0  0  0  0  0  0  0  0  0
   25.3281  -16.0937   17.3681 N   0  0  0  0  0  0  0  0  0  0  0  0
   25.9172  -15.5368   16.1925 N   0  0  0  0  0  0  0  0  0  0  0  0
   27.3684  -15.6646   16.2178 N   0  0  0  0  0  0  0  0  0  0  0  0
   27.7682  -17.0500   16.3212 N   0  0  0  0  0  0  0  0  0  0  0  0
   27.2970  -17.7815   15.1960 N   0  0  0  0  0  0  0  0  0  0  0  0
   27.8448  -17.2188   14.0076 N   0  0  0  0  0  0  0  0  0  0  0  0
   29.2609  -17.2769   14.0804 N   0  0  0  0  0  0  0  0  0  0  0  0
   29.6654  -18.6401   14.1863 N   0  0  0  0  0  0  0  0  0  0  0  0
   29.1999  -19.3911   13.0583 N   0  0  0  0  0  0  0  0  0  0  0  0
   29.7353  -18.8565   11.8350 N   0  0  0  0  0  0  0  0  0  0  0  0
   31.1830  -18.8910   11.8801 N   0  0  0  0  0  0  0  0  0  0  0  0
   31.5741  -20.2683   12.0279 N   0  0  0  0  0  0  0  0  0  0  0  0
   31.0479  -21.0110   10.9221 N   0  0  0  0  0  0  0  0  0  0  0  0
   31.5530  -20.4469    9.7149 N   0  0  0  0  0  0  0  0  0  0  0  0
   32.9785  -20.4790    9.7585 N   0  0  0  0  0  0  0  0  0  0  0  0
   33.4353  -21.8450    9.8707 N   0  0  0  0  0  0  0  0  0  0  0  0
   32.9743  -22.6489    8.7558 N   0  0  0  0  0  0  0  0  0  0  0  0
   33.4479  -22.0899    7.5319 N   0  0  0  0  0  0  0  0  0  0  0  0
   34.8919  -22.1086    7.5644 N   0  0  0  0  0  0  0  0  0  0  0  0
   35.3322  -23.4749    7.7299 N   0  0  0  0  0  0  0  0  0  0  0  0
   34.8721  -24.2840    6.6275 N   0  0  0  0  0  0  0  0  0  0  0  0
   35.3343  -23.7360    5.4048 N   0  0  0  0  0  0  0  0  0  0  0  0
   36.7622  -23.7555    5.4045 N   0  0  0  0  0  0  0  0  0  0  0  0
   37.2496  -25.1124    5.5557 N   0  0  0  0  0  0  0  0  0  0  0  0
   36.7302  -25.9306    4.4977 N   0  0  0  0  0  0  0  0  0  0  0  0
   37.2009  -25.3814    3.2589 N   0  0  0  0  0  0  0  0  0  0  0  0
   38.6378  -25.3622    3.2851 N   0  0  0  0  0  0  0  0  0  0  0  0
   39.1036  -26.6906    3.4970 N   0  0  0  0  0  0  0  0  0  0  0  0
   38.6601  -27.5273    2.4052 N   0  0  0  0  0  0  0  0  0  0  0  0
   39.1321  -27.0274    1.1198 N   0  0  0  0  0  0  0  0  0  0  0  0
   40.5673  -27.0003    1.0933 N   0  0  0  0  0  0  0  0  0  0  0  0
   41.0505  -28.3288    1.2939 N   0  0  0  0  0  0  0  0  0  0  0  0
   40.5439  -29.1665    0.2465 N   0  0  0  0  0  0  0  0  0  0  0  0
   40.9815  -28.6558   -1.0101 N   0  0  0  0  0  0  0  0  0  0  0  0
   42.4121  -28.6102   -1.0364 N   0  0  0  0  0  0  0  0  0  0  0  0
   42.9476  -29.9453   -0.8729 N   0  0  0  0  0  0  0  0  0  0  0  0
   42.4258  -30.7964   -1.8848 N   0  0  0  0  0  0  0  0  0  0  0  0
   42.8377  -30.2682   -3.1447 N   0  0  0  0  0  0  0  0  0  0  0  0
   44.2748  -30.2130   -3.1854 N   0  0  0  0  0  0  0  0  0  0  0  0
   44.8214  -31.5295   -2.9947 N   0  0  0  0  0  0  0  0  0  0  0  0
   44.3790  -32.4311   -4.0381 N   0  0  0  0  0  0  0  0  0  0  0  0
   44.7582  -31.9336   -5.3254 N   0  0  0  0  0  0  0  0  0  0  0  0
   46.1831  -31.8651   -5.3755 N   0  0  0  0  0  0  0  0  0  0  0  0
   46.7121  -33.1626   -5.1342 N   0  0  0  0  0  0  0  0  0  0  0  0
   46.2241  -34.0538   -6.1509 N   0  0  0  0  0  0  0  0  0  0  0  0
   46.6269  -33.5683   -7.4527 N   0  0  0  0  0  0  0  0  0  0  0  0
   48.0515  -33.4466   -7.4763 N   0  0  0  0  0  0  0  0  0  0  0  0
   48.6079  -34.7562   -7.2577 N   0  0  0  0  0  0  0  0  0  0  0  0
   48.1222  -35.6745   -8.2647 N   0  0  0  0  0  0  0  0  0  0  0  0
   48.5112  -35.2173   -9.5827 N   0  0  0  0  0  0  0  0  0  0  0  0
   49.9474  -35.1317   -9.6849 N   0  0  0  0  0  0  0  0  0  0  0  0
   50.5135  -36.4108   -9.4280 N   0  0  0  0  0  0  0  0  0  0  0  0
   50.0088  -37.3137  -10.3974 N   0  0  0  0  0  0  0  0  0  0  0  0
   50.3783  -36.8441  -11.7065 N   0  0  0  0  0  0  0  0  0  0  0  0
   51.8052  -36.7219  -11.8001 N   0  0  0  0  0  0  0  0  0  0  0  0
   52.3930  -38.0119  -11.5455 N   0  0  0  0  0  0  0  0  0  0  0  0
   51.9039  -38.9578  -12.5392 N   0  0  0  0  0  0  0  0  0  0  0  0
   52.2533  -38.4849  -13.8537 N   0  0  0  0  0  0  0  0  0  0  0  0
   53.6851  -38.3854  -13.9775 N   0  0  0  0  0  0  0  0  0  0  0  0
   54.2773  -39.6486  -13.7066 N   0  0  0  0  0  0  0  0  0  0  0  0
   53.7849  -40.5828  -14.6683 N   0  0  0  0  0  0  0  0  0  0  0  0
   54.1084  -40.1033  -15.9925 N   0  0  0  0  0  0  0  0  0  0  0  0
   55.5499  -39.9774  -16.1108 N   0  0  0  0  0  0  0  0  0  0  0  0
   56.1929  -41.2626  -15.8708 N   0  0  0  0  0  0  0  0  0  0  0  0
   55.7249  -42.2394  -16.8166 N   0  0  0  0  0  0  0  0  0  0  0  0
   56.0417  -41.8071  -18.1402 N   0  0  0  0  0  0  0  0  0  0  0  0
   57.4469  -41.6309  -18.2740 N   0  0  0  0  0  0  0  0  0  0  0  0
   58.0987  -42.8764  -18.0284 N   0  0  0  0  0  0  0  0  0  0  0  0
   32.1301  -17.4173   27.2962 H   0  0  0  0  0  0  0  0  0  0  0  0
   30.7135  -17.7406   28.0575 H   0  0  0  0  0  0  0  0  0  0  0  0
   30.8803  -19.0423   26.1364 H   0  0  0  0  0  0  0  0  0  0  0  0
   28.9116  -16.8645   25.9459 H   0  0  0  0  0  0  0  0  0  0  0  0
   28.7255  -18.3450   26.9185 H   0  0  0  0  0  0  0  0  0  0  0  0
   28.9237  -19.7226   24.8548 H   0  0  0  0  0  0  0  0  0  0  0  0
   29.1007  -18.2646   23.8771 H   0  0  0  0  0  0  0  0  0  0  0  0
   26.7865  -18.9575   25.5624 H   0  0  0  0  0  0  0  0  0  0  0  0
   27.2517  -16.8220   23.7802 H   0  0  0  0  0  0  0  0  0  0  0  0
   25.0020  -17.4832   25.4032 H   0  0  0  0  0  0  0  0  0  0  0  0
   25.3726  -15.2136   25.2743 H   0  0  0  0  0  0  0  0  0  0  0  0
   26.6351  -15.1955   23.3206 H   0  0  0  0  0  0  0  0  0  0  0  0
   24.0383  -15.7902   22.0283 H   0  0  0  0  0  0  0  0  0  0  0  0
   25.4060  -16.9144   22.1339 H   0  0  0  0  0  0  0  0  0  0  0  0
   26.8409  -15.3499   20.8840 H   0  0  0  0  0  0  0  0  0  0  0  0
   25.4782  -14.2081   20.7474 H   0  0  0  0  0  0  0  0  0  0  0  0
   24.2445  -15.9232   19.5806 H   0  0  0  0  0  0  0  0  0  0  0  0
   26.8476  -15.5430   18.4998 H   0  0  0  0  0  0  0  0  0  0  0  0
   24.3105  -16.0583   17.3295 H   0  0  0  0  0  0  0  0  0  0  0  0
   25.6545  -14.5508   16.1261 H   0  0  0  0  0  0  0  0  0  0  0  0
   27.7294  -15.1882   17.0404 H   0  0  0  0  0  0  0  0  0  0  0  0
   27.3665  -17.4533   17.1622 H   0  0  0  0  0  0  0  0  0  0  0  0
   26.2907  -17.7192   15.1406 H   0  0  0  0  0  0  0  0  0  0  0  0
   27.5461  -16.2391   13.9348 H   0  0  0  0  0  0  0  0  0  0  0  0
   29.5938  -16.7471   14.9010 H   0  0  0  0  0  0  0  0  0  0  0  0
   29.2587  -19.0631   15.0217 H   0  0  0  0  0  0  0  0  0  0  0  0
   28.1815  -19.3148   13.0279 H   0  0  0  0  0  0  0  0  0  0  0  0
   29.4204  -17.8842   11.7966 H   0  0  0  0  0  0  0  0  0  0  0  0
   31.4363  -18.3548   12.7297 H   0  0  0  0  0  0  0  0  0  0  0  0
   31.1186  -20.6122   12.8729 H   0  0  0  0  0  0  0  0  0  0  0  0
   30.0385  -20.9181   10.9135 H   0  0  0  0  0  0  0  0  0  0  0  0
   31.2686  -19.4789    9.6314 H   0  0  0  0  0  0  0  0  0  0  0  0
   33.3021  -19.9217   10.5640 H   0  0  0  0  0  0  0  0  0  0  0  0
   33.0544  -22.2596   10.7221 H   0  0  0  0  0  0  0  0  0  0  0  0
   31.9586  -22.6013    8.7441 H   0  0  0  0  0  0  0  0  0  0  0  0
   33.1249  -21.1255    7.4794 H   0  0  0  0  0  0  0  0  0  0  0  0
   35.1677  -21.5647    8.3951 H   0  0  0  0  0  0  0  0  0  0  0  0
   34.9291  -23.8546    8.5860 H   0  0  0  0  0  0  0  0  0  0  0  0
   33.8522  -24.2592    6.6237 H   0  0  0  0  0  0  0  0  0  0  0  0
   34.9770  -22.7739    5.3085 H   0  0  0  0  0  0  0  0  0  0  0  0
   37.1051  -23.2188    6.1994 H   0  0  0  0  0  0  0  0  0  0  0  0
   36.8559  -25.4603    6.4330 H   0  0  0  0  0  0  0  0  0  0  0  0
   35.7036  -25.8582    4.5669 H   0  0  0  0  0  0  0  0  0  0  0  0
   36.8972  -24.4163    3.2040 H   0  0  0  0  0  0  0  0  0  0  0  0
   38.9527  -24.8081    4.0726 H   0  0  0  0  0  0  0  0  0  0  0  0
   38.7518  -27.0419    4.3953 H   0  0  0  0  0  0  0  0  0  0  0  0
   37.6424  -27.5281    2.3610 H   0  0  0  0  0  0  0  0  0  0  0  0
   38.7617  -26.0725    0.9978 H   0  0  0  0  0  0  0  0  0  0  0  0
   40.8796  -26.4238    1.8737 H   0  0  0  0  0  0  0  0  0  0  0  0
   40.6746  -28.6714    2.1711 H   0  0  0  0  0  0  0  0  0  0  0  0
   39.5122  -29.1342    0.3168 H   0  0  0  0  0  0  0  0  0  0  0  0
   40.6450  -27.7013   -1.1299 H   0  0  0  0  0  0  0  0  0  0  0  0
   42.7270  -27.9949   -0.2702 H   0  0  0  0  0  0  0  0  0  0  0  0
   42.5898  -30.2902    0.0198 H   0  0  0  0  0  0  0  0  0  0  0  0
   41.4106  -30.7909   -1.8403 H   0  0  0  0  0  0  0  0  0  0  0  0
   42.4969  -29.3139   -3.2199 H   0  0  0  0  0  0  0  0  0  0  0  0
   44.6067  -29.6352   -2.4199 H   0  0  0  0  0  0  0  0  0  0  0  0
   44.4875  -31.8703   -2.0878 H   0  0  0  0  0  0  0  0  0  0  0  0
   43.3614  -32.4444   -4.0001 H   0  0  0  0  0  0  0  0  0  0  0  0
   44.3730  -30.9916   -5.3941 H   0  0  0  0  0  0  0  0  0  0  0  0
   46.4674  -31.2447   -4.6103 H   0  0  0  0  0  0  0  0  0  0  0  0
   46.3643  -33.4862   -4.2250 H   0  0  0  0  0  0  0  0  0  0  0  0
   45.1936  -34.0630   -6.0720 H   0  0  0  0  0  0  0  0  0  0  0  0
   46.2575  -32.6225   -7.5478 H   0  0  0  0  0  0  0  0  0  0  0  0
   48.3205  -32.8115   -6.7131 H   0  0  0  0  0  0  0  0  0  0  0  0
   48.2692  -35.1044   -6.3688 H   0  0  0  0  0  0  0  0  0  0  0  0
   47.1033  -35.6804   -8.2121 H   0  0  0  0  0  0  0  0  0  0  0  0
   48.0789  -34.2876   -9.7033 H   0  0  0  0  0  0  0  0  0  0  0  0
   50.2778  -34.5002   -8.9554 H   0  0  0  0  0  0  0  0  0  0  0  0
   50.1976  -36.7027   -8.4943 H   0  0  0  0  0  0  0  0  0  0  0  0
   48.9830  -37.3266  -10.3009 H   0  0  0  0  0  0  0  0  0  0  0  0
   49.9948  -35.9078  -11.8241 H   0  0  0  0  0  0  0  0  0  0  0  0
   52.1138  -36.0866  -11.0705 H   0  0  0  0  0  0  0  0  0  0  0  0
   52.0815  -38.2968  -10.6126 H   0  0  0  0  0  0  0  0  0  0  0  0
   50.8795  -38.9857  -12.4649 H   0  0  0  0  0  0  0  0  0  0  0  0
   51.8512  -37.5612  -14.0098 H   0  0  0  0  0  0  0  0  0  0  0  0
   54.0145  -37.7152  -13.2804 H   0  0  0  0  0  0  0  0  0  0  0  0
   54.0347  -39.9394  -12.7470 H   0  0  0  0  0  0  0  0  0  0  0  0
   52.7602  -40.6510  -14.5793 H   0  0  0  0  0  0  0  0  0  0  0  0
   53.6776  -39.1755  -16.1236 H   0  0  0  0  0  0  0  0  0  0  0  0
   55.8749  -39.3324  -15.3907 H   0  0  0  0  0  0  0  0  0  0  0  0
   55.9215  -41.5649  -14.9362 H   0  0  0  0  0  0  0  0  0  0  0  0
   54.7144  -42.3003  -16.7267 H   0  0  0  0  0  0  0  0  0  0  0  0
   55.5990  -40.8967  -18.2848 H   0  0  0  0  0  0  0  0  0  0  0  0
   57.7522  -40.9498  -17.5730 H   0  0  0  0  0  0  0  0  0  0  0  0
   57.6933  -43.5539  -18.6675 H   0  0  0  0  0  0  0  0  0  0  0  0
   57.8029  -43.1759  -17.0938 H   0  0  0  0  0  0  0  0  0  0  0  0
  1  2  1  0  0  0  0
  1 82  1  0  0  0  0
  1 83  1  0  0  0  0
  2  3  1  0  0  0  0
  2 84  1  0  0  0  0
  3  4  1  0  0  0  0
  3 85  1  0  0  0  0
  3 86  1  0  0  0  0
  4  5  1  0  0  0  0
  4 87  1  0  0  0  0
  4 88  1  0  0  0  0
  5  6  1  0  0  0  0
  5 89  1  0  0  0  0
  6  7  1  0  0  0  0
  6 90  1  0  0  0  0
  7  8  1  0  0  0  0
  7 91  1  0  0  0  0
  8  9  1  0  0  0  0
  8 92  1  0  0  0  0
  9 10  1  0  0  0  0
  9 93  1  0  0  0  0
 10 11  1  0  0  0  0
 10 94  1  0  0  0  0
 10 95  1  0  0  0  0
 11 12  1  0  0  0  0
 11 96  1  0  0  0  0
 11 97  1  0  0  0  0
 12 13  1  0  0  0  0
 12 98  1  0  0  0  0
 13 14  1  0  0  0  0
 13 99  1  0  0  0  0
 14 15  1  0  0  0  0
 14100  1  0  0  0  0
 15 16  1  0  0  0  0
 15101  1  0  0  0  0
 16 17  1  0  0  0  0
 16102  1  0  0  0  0
 17 18  1  0  0  0  0
 17103  1  0  0  0  0
 18 19  1  0  0  0  0
 18104  1  0  0  0  0
 19 20  1  0  0  0  0
 19105  1  0  0  0  0
 20 21  1  0  0  0  0
 20106  1  0  0  0  0
 21 22  1  0  0  0  0
 21107  1  0  0  0  0
 22 23  1  0  0  0  0
 22108  1  0  0  0  0
 23 24  1  0  0  0  0
 23109  1  0  0  0  0
 24 25  1  0  0  0  0
 24110  1  0  0  0  0
 25 26  1  0  0  0  0
 25111  1  0  0  0  0
 26 27  1  0  0  0  0
 26112  1  0  0  0  0
 27 28  1  0  0  0  0
 27113  1  0  0  0  0
 28 29  1  0  0  0  0
 28114  1  0  0  0  0
 29 30  1  0  0  0  0
 29115  1  0  0  0  0
 30 31  1  0  0  0  0
 30116  1  0  0  0  0
 31 32  1  0  0  0  0
 31117  1  0  0  0  0
 32 33  1  0  0  0  0
 32118  1  0  0  0  0
 33 34  1  0  0  0  0
 33119  1  0  0  0  0
 34 35  1  0  0  0  0
 34120  1  0  0  0  0
 35 36  1  0  0  0  0
 35121  1  0  0  0  0
 36 37  1  0  0  0  0
 36122  1  0  0  0  0
 37 38  1  0  0  0  0
 37123  1  0  0  0  0
 38 39  1  0  0  0  0
 38124  1  0  0  0  0
 39 40  1  0  0  0  0
 39125  1  0  0  0  0
 40 41  1  0  0  0  0
 40126  1  0  0  0  0
 41 42  1  0  0  0  0
 41127  1  0  0  0  0
 42 43  1  0  0  0  0
 42128  1  0  0  0  0
 43 44  1  0  0  0  0
 43129  1  0  0  0  0
 44 45  1  0  0  0  0
 44130  1  0  0  0  0
 45 46  1  0  0  0  0
 45131  1  0  0  0  0
 46 47  1  0  0  0  0
 46132  1  0  0  0  0
 47 48  1  0  0  0  0
 47133  1  0  0  0  0
 48 49  1  0  0  0  0
 48134  1  0  0  0  0
 49 50  1  0  0  0  0
 49135  1  0  0  0  0
 50 51  1  0  0  0  0
 50136  1  0  0  0  0
 51 52  1  0  0  0  0
 51137  1  0  0  0  0
 52 53  1  0  0  0  0
 52138  1  0  0  0  0
 53 54  1  0  0  0  0
 53139  1  0  0  0  0
 54 55  1  0  0  0  0
 54140  1  0  0  0  0
 55 56  1  0  0  0  0
 55141  1  0  0  0  0
 56 57  1  0  0  0  0
 56142  1  0  0  0  0
 57 58  1  0  0  0  0
 57143  1  0  0  0  0
 58 59  1  0  0  0  0
 58144  1  0  0  0  0
 59 60  1  0  0  0  0
 59145  1  0  0  0  0
 60 61  1  0  0  0  0
 60146  1  0  0  0  0
 61 62  1  0  0  0  0
 61147  1  0  0  0  0
 62 63  1  0  0  0  0
 62148  1  0  0  0  0
 63 64  1  0  0  0  0
 63149  1  0  0  0  0
 64 65  1  0  0  0  0
 64150  1  0  0  0  0
 65 66  1  0  0  0  0
 65151  1  0  0  0  0
 66 67  1  0  0  0  0
 66152  1  0  0  0  0
 67 68  1  0  0  0  0
 67153  1  0  0  0  0
 68 69  1  0  0  0  0
 68154  1  0  0  0  0
 69 70  1  0  0  0  0
 69155  1  0  0  0  0
 70 71  1  0  0  0  0
 70156  1  0  0  0  0
 71 72  1  0  0  0  0
 71157  1  0  0  0  0
 72 73  1  0  0  0  0
 72158  1  0  0  0  0
 73 74  1  0  0  0  0
 73159  1  0  0  0  0
 74 75  1  0  0  0  0
 74160  1  0  0  0  0
 75 76  1  0  0  0  0
 75161  1  0  0  0  0
 76 77  1  0  0  0  0
 76162  1  0  0  0  0
 77 78  1  0  0  0  0
 77163  1  0  0  0  0
 78 79  1  0  0  0  0
 78164  1  0  0  0  0
 79 80  1  0  0  0  0
 79165  1  0  0  0  0
 80 81  1  0  0  0  0
 80166  1  0  0  0  0
 81167  1  0  0  0  0
 81168  1  0  0  0  0
M  END
$$$$
