
 OpenBabel04232216463D

 62 63  0  0  0  0  0  0  0  0999 V2000
    5.1967   -0.1240   -3.4141 C   0  0  0  0  0  0  0  0  0  0  0  0
    5.6514    1.3721   -3.3251 C   0  0  0  0  0  0  0  0  0  0  0  0
    4.7856    1.9766   -2.4699 C   0  0  0  0  0  0  0  0  0  0  0  0
    4.9777    1.8073   -0.9672 C   0  0  0  0  0  0  0  0  0  0  0  0
    5.3067    0.4579   -0.2473 C   0  0  0  0  0  0  0  0  0  0  0  0
    5.2713    2.9162   -0.3562 N   0  0  0  0  0  0  0  0  0  0  0  0
    6.7090    2.7463   -0.2518 C   0  0  0  0  0  0  0  0  0  0  0  0
    7.4580    3.9664   -0.6361 C   0  0  0  0  0  0  0  0  0  0  0  0
    8.8973    3.4910   -0.3648 C   0  0  0  0  0  0  0  0  0  0  0  0
   10.0964    4.0441   -1.1601 C   0  0  0  0  0  0  0  0  0  0  0  0
   10.1592    4.8924   -2.4412 C   0  0  0  0  0  0  0  0  0  0  0  0
    8.8321    5.5297   -2.7086 C   0  0  0  0  0  0  0  0  0  0  0  0
    8.4561    6.3552   -1.8316 O   0  0  0  0  0  0  0  0  0  0  0  0
    7.9285    5.1884   -3.8953 C   0  0  0  0  0  0  0  0  0  0  0  0
    8.3449    4.1956   -4.7173 C   0  0  0  0  0  0  0  0  0  0  0  0
    9.8074    4.4744   -5.5635 C   0  0  0  0  0  0  0  0  0  0  0  0
   10.6971    5.9243   -5.9670 C   0  0  0  0  0  0  0  0  0  0  0  0
   10.6998    7.4745   -6.6496 C   0  0  0  0  0  0  0  0  0  0  0  0
    9.3632    8.1189   -6.3627 C   0  0  0  0  0  0  0  0  0  0  0  0
    8.2689    8.8829   -7.2257 C   0  0  0  0  0  0  0  0  0  0  0  0
    7.0510    8.3019   -6.4976 C   0  0  0  0  0  0  0  0  0  0  0  0
    5.6864    7.9213   -5.9848 C   0  0  0  0  0  0  0  0  0  0  0  0
    5.8768    6.5984   -5.0530 C   0  0  0  0  0  0  0  0  0  0  0  0
    7.2901    6.4974   -4.3456 C   0  0  0  0  0  0  0  0  0  0  0  0
    7.8652    7.5316   -3.9996 O   0  0  0  0  0  0  0  0  0  0  0  0
    8.0444    2.6729   -4.2232 C   0  0  0  0  0  0  0  0  0  0  0  0
    7.1209    1.7398   -3.7317 C   0  0  0  0  0  0  0  0  0  0  0  0
    4.1009   -0.2140   -3.4364 H   0  0  0  0  0  0  0  0  0  0  0  0
    5.4922   -0.6965   -2.5402 H   0  0  0  0  0  0  0  0  0  0  0  0
    5.5723   -0.6804   -4.2899 H   0  0  0  0  0  0  0  0  0  0  0  0
    3.7163    1.7231   -2.5502 H   0  0  0  0  0  0  0  0  0  0  0  0
    4.4404   -0.1945   -0.1214 H   0  0  0  0  0  0  0  0  0  0  0  0
    5.6781    0.6530    0.7722 H   0  0  0  0  0  0  0  0  0  0  0  0
    6.1302   -0.0717   -0.7331 H   0  0  0  0  0  0  0  0  0  0  0  0
    7.0698    2.0259   -1.0019 H   0  0  0  0  0  0  0  0  0  0  0  0
    7.0022    2.3492    0.7365 H   0  0  0  0  0  0  0  0  0  0  0  0
    7.1767    4.8401   -0.0299 H   0  0  0  0  0  0  0  0  0  0  0  0
    7.2191    4.1669   -1.6518 H   0  0  0  0  0  0  0  0  0  0  0  0
    8.9472    2.3933   -0.4923 H   0  0  0  0  0  0  0  0  0  0  0  0
    9.0855    3.5919    0.7108 H   0  0  0  0  0  0  0  0  0  0  0  0
   10.0487    4.9274   -0.5359 H   0  0  0  0  0  0  0  0  0  0  0  0
    9.9539    3.1865   -1.8079 H   0  0  0  0  0  0  0  0  0  0  0  0
   10.5835    4.2889   -3.2236 H   0  0  0  0  0  0  0  0  0  0  0  0
   10.9167    5.6844   -2.3167 H   0  0  0  0  0  0  0  0  0  0  0  0
    9.7777    3.8812   -6.4891 H   0  0  0  0  0  0  0  0  0  0  0  0
   10.5907    3.9243   -5.0204 H   0  0  0  0  0  0  0  0  0  0  0  0
   10.4728    6.3489   -4.9850 H   0  0  0  0  0  0  0  0  0  0  0  0
   10.2051    5.7290   -6.9206 H   0  0  0  0  0  0  0  0  0  0  0  0
   10.9773    7.4558   -7.7107 H   0  0  0  0  0  0  0  0  0  0  0  0
   11.4836    8.0686   -6.1570 H   0  0  0  0  0  0  0  0  0  0  0  0
    9.4690    8.6572   -5.4221 H   0  0  0  0  0  0  0  0  0  0  0  0
    8.8640    7.1856   -6.1488 H   0  0  0  0  0  0  0  0  0  0  0  0
    8.2890    8.6731   -8.2767 H   0  0  0  0  0  0  0  0  0  0  0  0
    8.3590    9.9863   -7.0562 H   0  0  0  0  0  0  0  0  0  0  0  0
    7.3376    8.7374   -5.5535 H   0  0  0  0  0  0  0  0  0  0  0  0
    7.2329    7.2695   -6.8393 H   0  0  0  0  0  0  0  0  0  0  0  0
    4.9737    7.7093   -6.7571 H   0  0  0  0  0  0  0  0  0  0  0  0
    5.2630    8.7477   -5.3552 H   0  0  0  0  0  0  0  0  0  0  0  0
    5.7151    5.7223   -5.6273 H   0  0  0  0  0  0  0  0  0  0  0  0
    5.1838    6.6534   -4.2412 H   0  0  0  0  0  0  0  0  0  0  0  0
    9.0336    2.1894   -4.3294 H   0  0  0  0  0  0  0  0  0  0  0  0
    7.6306    0.7720   -3.5846 H   0  0  0  0  0  0  0  0  0  0  0  0
  1  2  1  0  0  0  0
  1 28  1  0  0  0  0
  1 29  1  0  0  0  0
  1 30  1  0  0  0  0
  2  3  2  3  0  0  0
  2 27  1  0  0  0  0
  3  4  1  0  0  0  0
  3 31  1  0  0  0  0
  4  5  1  0  0  0  0
  4  6  2  3  0  0  0
  5 32  1  0  0  0  0
  5 33  1  0  0  0  0
  5 34  1  0  0  0  0
  6  7  1  0  0  0  0
  7  8  1  0  0  0  0
  7 35  1  0  0  0  0
  7 36  1  0  0  0  0
  8  9  1  0  0  0  0
  8 37  1  0  0  0  0
  8 38  1  0  0  0  0
  9 10  1  0  0  0  0
  9 39  1  0  0  0  0
  9 40  1  0  0  0  0
 10 11  1  0  0  0  0
 10 41  1  0  0  0  0
 10 42  1  0  0  0  0
 11 12  1  0  0  0  0
 11 43  1  0  0  0  0
 11 44  1  0  0  0  0
 12 13  2  0  0  0  0
 12 14  1  0  0  0  0
 14 15  2  3  0  0  0
 14 24  1  0  0  0  0
 15 16  1  0  0  0  0
 15 26  1  0  0  0  0
 16 17  1  0  0  0  0
 16 45  1  0  0  0  0
 16 46  1  0  0  0  0
 17 18  1  0  0  0  0
 17 47  1  0  0  0  0
 17 48  1  0  0  0  0
 18 19  1  0  0  0  0
 18 49  1  0  0  0  0
 18 50  1  0  0  0  0
 19 20  1  0  0  0  0
 19 51  1  0  0  0  0
 19 52  1  0  0  0  0
 20 21  1  0  0  0  0
 20 53  1  0  0  0  0
 20 54  1  0  0  0  0
 21 22  1  0  0  0  0
 21 55  1  0  0  0  0
 21 56  1  0  0  0  0
 22 23  1  0  0  0  0
 22 57  1  0  0  0  0
 22 58  1  0  0  0  0
 23 24  1  0  0  0  0
 23 59  1  0  0  0  0
 23 60  1  0  0  0  0
 24 25  2  0  0  0  0
 26 27  2  3  0  0  0
 26 61  1  0  0  0  0
 27 62  1  0  0  0  0
M  END
$$$$
