
 OpenBabel04232216443D

 57 58  0  0  1  0  0  0  0  0999 V2000
    5.9044    0.1984    0.0887 C   0  0  0  0  0  0  0  0  0  0  0  0
    6.2752    0.7961   -1.2433 C   0  0  0  0  0  0  0  0  0  0  0  0
    4.8448    1.1767   -2.0736 C   0  0  3  0  0  0  0  0  0  0  0  0
    4.4433    2.4585   -1.2271 C   0  0  0  0  0  0  0  0  0  0  0  0
    3.5193    3.4665   -1.8168 C   0  0  0  0  0  0  0  0  0  0  0  0
    2.6221    3.1044   -2.7375 C   0  0  0  0  0  0  0  0  0  0  0  0
    1.7727    4.0425   -3.2931 N   0  0  0  0  0  0  0  0  0  0  0  0
    2.4681    1.6560   -2.9789 C   0  0  0  0  0  0  0  0  0  0  0  0
    1.4781    1.2927   -4.0933 C   0  0  0  0  0  0  0  0  0  0  0  0
    3.2656    0.6960   -2.3410 C   0  0  0  0  0  0  0  0  0  0  0  0
    2.8141   -0.7492   -2.6107 C   0  0  0  0  0  0  0  0  0  0  0  0
    2.9929   -1.8436   -1.5756 C   0  0  0  0  0  0  0  0  0  0  0  0
    2.1007   -1.6533   -0.3662 C   0  0  0  0  0  0  0  0  0  0  0  0
    5.3300    0.4585   -3.2587 C   0  0  0  0  0  0  0  0  0  0  0  0
    5.3039    0.6648   -4.5824 C   0  0  0  0  0  0  0  0  0  0  0  0
    6.0889   -0.3087   -5.2451 C   0  0  0  0  0  0  0  0  0  0  0  0
    7.2117    0.2096   -5.7427 C   0  0  0  0  0  0  0  0  0  0  0  0
    8.3912   -0.5745   -5.8157 C   0  0  0  0  0  0  0  0  0  0  0  0
    9.4068   -0.1129   -6.5399 C   0  0  0  0  0  0  0  0  0  0  0  0
   10.7355   -0.4461   -6.0920 C   0  0  0  0  0  0  0  0  0  0  0  0
   11.4896    0.6569   -6.0866 C   0  0  0  0  0  0  0  0  0  0  0  0
   11.7931    1.3513   -4.8577 C   0  0  0  0  0  0  0  0  0  0  0  0
   11.1215    1.7174   -3.7313 C   0  0  0  0  0  0  0  0  0  0  0  0
    9.8235    1.6987   -2.9138 C   0  0  0  0  0  0  0  0  0  0  0  0
    8.7481    0.8675   -2.6815 C   0  0  0  0  0  0  0  0  0  0  0  0
    7.6702    0.8098   -1.5311 C   0  0  0  0  0  0  0  0  0  0  0  0
    4.8402   -0.0461    0.1026 H   0  0  0  0  0  0  0  0  0  0  0  0
    6.1157    0.8813    0.9135 H   0  0  0  0  0  0  0  0  0  0  0  0
    6.4353   -0.7485    0.2212 H   0  0  0  0  0  0  0  0  0  0  0  0
    5.2845    2.9938   -0.7751 H   0  0  0  0  0  0  0  0  0  0  0  0
    3.8847    2.0791   -0.3397 H   0  0  0  0  0  0  0  0  0  0  0  0
    3.5405    4.4783   -1.4243 H   0  0  0  0  0  0  0  0  0  0  0  0
    2.0670    5.0007   -3.1036 H   0  0  0  0  0  0  0  0  0  0  0  0
    1.6479    3.9227   -4.2931 H   0  0  0  0  0  0  0  0  0  0  0  0
    1.1697    2.1266   -4.7323 H   0  0  0  0  0  0  0  0  0  0  0  0
    0.5618    0.8385   -3.7119 H   0  0  0  0  0  0  0  0  0  0  0  0
    1.9572    0.6032   -4.8005 H   0  0  0  0  0  0  0  0  0  0  0  0
    3.2408   -1.0930   -3.5597 H   0  0  0  0  0  0  0  0  0  0  0  0
    1.7284   -0.7505   -2.7983 H   0  0  0  0  0  0  0  0  0  0  0  0
    4.0405   -1.9517   -1.2958 H   0  0  0  0  0  0  0  0  0  0  0  0
    2.6906   -2.7861   -2.0563 H   0  0  0  0  0  0  0  0  0  0  0  0
    2.4125   -0.7878    0.2313 H   0  0  0  0  0  0  0  0  0  0  0  0
    2.1705   -2.5448    0.2895 H   0  0  0  0  0  0  0  0  0  0  0  0
    1.0446   -1.5237   -0.6457 H   0  0  0  0  0  0  0  0  0  0  0  0
    5.6232   -0.5618   -2.9373 H   0  0  0  0  0  0  0  0  0  0  0  0
    4.9674    1.5860   -4.9992 H   0  0  0  0  0  0  0  0  0  0  0  0
    6.0770   -1.3718   -4.9536 H   0  0  0  0  0  0  0  0  0  0  0  0
    7.3151    1.2959   -5.7818 H   0  0  0  0  0  0  0  0  0  0  0  0
    8.5362   -1.3417   -5.0568 H   0  0  0  0  0  0  0  0  0  0  0  0
    9.2550    0.7799   -7.1480 H   0  0  0  0  0  0  0  0  0  0  0  0
   10.7777   -1.1331   -5.2524 H   0  0  0  0  0  0  0  0  0  0  0  0
   11.5277    1.2763   -6.9868 H   0  0  0  0  0  0  0  0  0  0  0  0
   12.8038    1.7686   -4.9857 H   0  0  0  0  0  0  0  0  0  0  0  0
   11.7901    2.4201   -3.2105 H   0  0  0  0  0  0  0  0  0  0  0  0
    9.8932    2.5560   -2.2362 H   0  0  0  0  0  0  0  0  0  0  0  0
    8.8790   -0.1185   -3.1214 H   0  0  0  0  0  0  0  0  0  0  0  0
    8.2774    0.4901   -0.6747 H   0  0  0  0  0  0  0  0  0  0  0  0
  1  2  1  0  0  0  0
  1 27  1  0  0  0  0
  1 28  1  0  0  0  0
  1 29  1  0  0  0  0
  2  3  1  0  0  0  0
  2 26  2  3  0  0  0
  3  4  1  0  0  0  0
  3 14  1  0  0  0  0
  4  5  1  0  0  0  0
  4 30  1  0  0  0  0
  4 31  1  0  0  0  0
  5  6  2  0  0  0  0
  5 32  1  0  0  0  0
  6  7  1  0  0  0  0
  6  8  1  0  0  0  0
  7 33  1  0  0  0  0
  7 34  1  0  0  0  0
  8  9  1  0  0  0  0
  8 10  2  0  0  0  0
  9 35  1  0  0  0  0
  9 36  1  0  0  0  0
  9 37  1  0  0  0  0
 10 11  1  0  0  0  0
 10  3  1  0  0  0  0
 11 12  1  0  0  0  0
 11 38  1  0  0  0  0
 11 39  1  0  0  0  0
 12 13  1  0  0  0  0
 12 40  1  0  0  0  0
 12 41  1  0  0  0  0
 13 42  1  0  0  0  0
 13 43  1  0  0  0  0
 13 44  1  0  0  0  0
 14 15  2  3  0  0  0
 14 45  1  0  0  0  0
 15 16  1  0  0  0  0
 15 46  1  0  0  0  0
 16 17  2  3  0  0  0
 16 47  1  0  0  0  0
 17 18  1  0  0  0  0
 17 48  1  0  0  0  0
 18 19  2  3  0  0  0
 18 49  1  0  0  0  0
 19 20  1  0  0  0  0
 19 50  1  0  0  0  0
 20 21  2  3  0  0  0
 20 51  1  0  0  0  0
 21 22  1  0  0  0  0
 21 52  1  0  0  0  0
 22 23  2  3  0  0  0
 22 53  1  0  0  0  0
 23 24  1  0  0  0  0
 23 54  1  0  0  0  0
 24 25  2  3  0  0  0
 24 55  1  0  0  0  0
 25 26  1  0  0  0  0
 25 56  1  0  0  0  0
 26 57  1  0  0  0  0
M  END
$$$$
