
 OpenBabel04232217023D

 96 95  0  0  0  0  0  0  0  0999 V2000
   12.8375    7.1902   -6.0988 S   0  0  0  0  0  0  0  0  0  0  0  0
   12.1271    6.8729   -4.4268 C   0  0  0  0  0  0  0  0  0  0  0  0
   12.8751    8.1038   -3.2961 S   0  0  0  0  0  0  0  0  0  0  0  0
   12.1023    7.6844   -1.6909 C   0  0  0  0  0  0  0  0  0  0  0  0
   12.6829    8.6908   -0.6540 C   0  0  0  0  0  0  0  0  0  0  0  0
   12.1205    8.4483    0.7491 C   0  0  0  0  0  0  0  0  0  0  0  0
   12.6968    9.3996    1.7693 C   0  0  0  0  0  0  0  0  0  0  0  0
   12.0711    9.1638    3.1873 C   0  0  0  0  0  0  0  0  0  0  0  0
   12.3381    7.8071    3.7191 N   0  0  0  0  0  0  0  0  0  0  0  0
   11.7517    7.5199    5.2619 S   0  0  0  0  0  0  0  0  0  0  0  0
   12.3646    5.6055    5.6417 S   0  0  0  0  0  0  0  0  0  0  0  0
   14.4268    5.5867    5.6927 S   0  0  0  0  0  0  0  0  0  0  0  0
   15.0993    6.8838    7.1562 S   0  0  0  0  0  0  0  0  0  0  0  0
   17.1967    6.8745    7.0986 S   0  0  0  0  0  0  0  0  0  0  0  0
   17.8943    8.2458    8.5339 S   0  0  0  0  0  0  0  0  0  0  0  0
   20.0013    8.2355    8.5245 S   0  0  0  0  0  0  0  0  0  0  0  0
   20.6918    9.6137    9.9655 S   0  0  0  0  0  0  0  0  0  0  0  0
   22.8015    9.6051    9.9565 S   0  0  0  0  0  0  0  0  0  0  0  0
   23.4922   10.9827   11.3971 S   0  0  0  0  0  0  0  0  0  0  0  0
   25.6017   10.9736   11.3875 S   0  0  0  0  0  0  0  0  0  0  0  0
   26.2924   12.3512   12.8281 S   0  0  0  0  0  0  0  0  0  0  0  0
   28.4018   12.3420   12.8185 S   0  0  0  0  0  0  0  0  0  0  0  0
   29.0924   13.7195   14.2590 S   0  0  0  0  0  0  0  0  0  0  0  0
   31.2017   13.7104   14.2494 S   0  0  0  0  0  0  0  0  0  0  0  0
   31.8924   15.0879   15.6899 S   0  0  0  0  0  0  0  0  0  0  0  0
   34.0017   15.0788   15.6803 S   0  0  0  0  0  0  0  0  0  0  0  0
   34.6924   16.4563   17.1208 S   0  0  0  0  0  0  0  0  0  0  0  0
   36.8017   16.4472   17.1112 S   0  0  0  0  0  0  0  0  0  0  0  0
   37.4923   17.8247   18.5517 S   0  0  0  0  0  0  0  0  0  0  0  0
   39.6017   17.8156   18.5422 S   0  0  0  0  0  0  0  0  0  0  0  0
   40.2923   19.1931   19.9827 S   0  0  0  0  0  0  0  0  0  0  0  0
   42.4017   19.1839   19.9731 S   0  0  0  0  0  0  0  0  0  0  0  0
   43.0923   20.5615   21.4136 S   0  0  0  0  0  0  0  0  0  0  0  0
   45.2017   20.5523   21.4040 S   0  0  0  0  0  0  0  0  0  0  0  0
   45.8923   21.9299   22.8445 S   0  0  0  0  0  0  0  0  0  0  0  0
   48.0017   21.9207   22.8349 S   0  0  0  0  0  0  0  0  0  0  0  0
   48.6923   23.2983   24.2754 S   0  0  0  0  0  0  0  0  0  0  0  0
   50.8017   23.2891   24.2658 S   0  0  0  0  0  0  0  0  0  0  0  0
   51.4923   24.6666   25.7063 S   0  0  0  0  0  0  0  0  0  0  0  0
   53.6017   24.6575   25.6967 S   0  0  0  0  0  0  0  0  0  0  0  0
   54.2923   26.0350   27.1372 S   0  0  0  0  0  0  0  0  0  0  0  0
   56.4017   26.0259   27.1277 S   0  0  0  0  0  0  0  0  0  0  0  0
   57.0923   27.4034   28.5682 S   0  0  0  0  0  0  0  0  0  0  0  0
   59.2017   27.3943   28.5586 S   0  0  0  0  0  0  0  0  0  0  0  0
   59.8923   28.7718   29.9991 S   0  0  0  0  0  0  0  0  0  0  0  0
   62.0017   28.7627   29.9895 S   0  0  0  0  0  0  0  0  0  0  0  0
   62.6923   30.1402   31.4300 S   0  0  0  0  0  0  0  0  0  0  0  0
   64.8017   30.1310   31.4204 S   0  0  0  0  0  0  0  0  0  0  0  0
   65.4923   31.5086   32.8609 S   0  0  0  0  0  0  0  0  0  0  0  0
   67.6016   31.4994   32.8513 S   0  0  0  0  0  0  0  0  0  0  0  0
   68.2923   32.8770   34.2918 S   0  0  0  0  0  0  0  0  0  0  0  0
   70.4016   32.8678   34.2823 S   0  0  0  0  0  0  0  0  0  0  0  0
   71.0923   34.2454   35.7227 S   0  0  0  0  0  0  0  0  0  0  0  0
   73.2016   34.2362   35.7132 S   0  0  0  0  0  0  0  0  0  0  0  0
   73.8923   35.6137   37.1537 S   0  0  0  0  0  0  0  0  0  0  0  0
   76.0016   35.6046   37.1441 S   0  0  0  0  0  0  0  0  0  0  0  0
   76.6922   36.9821   38.5846 S   0  0  0  0  0  0  0  0  0  0  0  0
   78.8016   36.9730   38.5750 S   0  0  0  0  0  0  0  0  0  0  0  0
   79.4922   38.3505   40.0155 S   0  0  0  0  0  0  0  0  0  0  0  0
   81.6016   38.3414   40.0059 S   0  0  0  0  0  0  0  0  0  0  0  0
   82.2922   39.7189   41.4464 S   0  0  0  0  0  0  0  0  0  0  0  0
   84.4016   39.7098   41.4368 S   0  0  0  0  0  0  0  0  0  0  0  0
   85.0922   41.0873   42.8773 S   0  0  0  0  0  0  0  0  0  0  0  0
   87.2016   41.0781   42.8678 S   0  0  0  0  0  0  0  0  0  0  0  0
   87.8922   42.4557   44.3083 S   0  0  0  0  0  0  0  0  0  0  0  0
   90.0016   42.4465   44.2987 S   0  0  0  0  0  0  0  0  0  0  0  0
   90.6922   43.8241   45.7392 S   0  0  0  0  0  0  0  0  0  0  0  0
   92.8016   43.8149   45.7296 S   0  0  0  0  0  0  0  0  0  0  0  0
   93.4922   45.1925   47.1701 S   0  0  0  0  0  0  0  0  0  0  0  0
   95.6016   45.1833   47.1605 S   0  0  0  0  0  0  0  0  0  0  0  0
   96.2922   46.5608   48.6010 S   0  0  0  0  0  0  0  0  0  0  0  0
   98.4014   46.5516   48.5914 S   0  0  0  0  0  0  0  0  0  0  0  0
   99.0918   47.9291   50.0318 S   0  0  0  0  0  0  0  0  0  0  0  0
  101.2005   47.9196   50.0219 S   0  0  0  0  0  0  0  0  0  0  0  0
  101.8896   49.2962   51.4616 S   0  0  0  0  0  0  0  0  0  0  0  0
  103.9946   49.2856   51.4494 S   0  0  0  0  0  0  0  0  0  0  0  0
  104.6778   50.6585   52.8858 S   0  0  0  0  0  0  0  0  0  0  0  0
  106.7692   50.6128   52.8791 S   0  0  0  0  0  0  0  0  0  0  0  0
  107.4503   52.0337   54.2366 S   0  0  0  0  0  0  0  0  0  0  0  0
  109.5235   51.9449   54.2485 S   0  0  0  0  0  0  0  0  0  0  0  0
  110.1337   52.5887   52.3925 S   0  0  0  0  0  0  0  0  0  0  0  0
   12.2085    6.2377   -6.7914 H   0  0  0  0  0  0  0  0  0  0  0  0
   12.3769    5.8493   -4.1272 H   0  0  0  0  0  0  0  0  0  0  0  0
   11.0391    6.9887   -4.4793 H   0  0  0  0  0  0  0  0  0  0  0  0
   12.3524    6.6671   -1.4008 H   0  0  0  0  0  0  0  0  0  0  0  0
   11.0222    7.7977   -1.7481 H   0  0  0  0  0  0  0  0  0  0  0  0
   12.4496    9.7096   -0.9545 H   0  0  0  0  0  0  0  0  0  0  0  0
   13.7694    8.5887   -0.6107 H   0  0  0  0  0  0  0  0  0  0  0  0
   12.3389    7.4125    1.0471 H   0  0  0  0  0  0  0  0  0  0  0  0
   11.0183    8.5408    0.7184 H   0  0  0  0  0  0  0  0  0  0  0  0
   12.4487   10.4493    1.4761 H   0  0  0  0  0  0  0  0  0  0  0  0
   13.7808    9.3353    1.8136 H   0  0  0  0  0  0  0  0  0  0  0  0
   11.0153    9.3139    3.1075 H   0  0  0  0  0  0  0  0  0  0  0  0
   12.4882    9.9117    3.8568 H   0  0  0  0  0  0  0  0  0  0  0  0
   13.3608    7.6383    3.7002 H   0  0  0  0  0  0  0  0  0  0  0  0
  111.4757   52.5193   52.4932 H   0  0  0  0  0  0  0  0  0  0  0  0
  1  2  1  0  0  0  0
  1 82  1  0  0  0  0
  2  3  1  0  0  0  0
  2 83  1  0  0  0  0
  2 84  1  0  0  0  0
  3  4  1  0  0  0  0
  4  5  1  0  0  0  0
  4 85  1  0  0  0  0
  4 86  1  0  0  0  0
  5  6  1  0  0  0  0
  5 87  1  0  0  0  0
  5 88  1  0  0  0  0
  6  7  1  0  0  0  0
  6 89  1  0  0  0  0
  6 90  1  0  0  0  0
  7  8  1  0  0  0  0
  7 91  1  0  0  0  0
  7 92  1  0  0  0  0
  8  9  1  0  0  0  0
  8 93  1  0  0  0  0
  8 94  1  0  0  0  0
  9 10  1  0  0  0  0
  9 95  1  0  0  0  0
 10 11  1  0  0  0  0
 11 12  1  0  0  0  0
 12 13  1  0  0  0  0
 13 14  1  0  0  0  0
 14 15  1  0  0  0  0
 15 16  1  0  0  0  0
 16 17  1  0  0  0  0
 17 18  1  0  0  0  0
 18 19  1  0  0  0  0
 19 20  1  0  0  0  0
 20 21  1  0  0  0  0
 21 22  1  0  0  0  0
 22 23  1  0  0  0  0
 23 24  1  0  0  0  0
 24 25  1  0  0  0  0
 25 26  1  0  0  0  0
 26 27  1  0  0  0  0
 27 28  1  0  0  0  0
 28 29  1  0  0  0  0
 29 30  1  0  0  0  0
 30 31  1  0  0  0  0
 31 32  1  0  0  0  0
 32 33  1  0  0  0  0
 33 34  1  0  0  0  0
 34 35  1  0  0  0  0
 35 36  1  0  0  0  0
 36 37  1  0  0  0  0
 37 38  1  0  0  0  0
 38 39  1  0  0  0  0
 39 40  1  0  0  0  0
 40 41  1  0  0  0  0
 41 42  1  0  0  0  0
 42 43  1  0  0  0  0
 43 44  1  0  0  0  0
 44 45  1  0  0  0  0
 45 46  1  0  0  0  0
 46 47  1  0  0  0  0
 47 48  1  0  0  0  0
 48 49  1  0  0  0  0
 49 50  1  0  0  0  0
 50 51  1  0  0  0  0
 51 52  1  0  0  0  0
 52 53  1  0  0  0  0
 53 54  1  0  0  0  0
 54 55  1  0  0  0  0
 55 56  1  0  0  0  0
 56 57  1  0  0  0  0
 57 58  1  0  0  0  0
 58 59  1  0  0  0  0
 59 60  1  0  0  0  0
 60 61  1  0  0  0  0
 61 62  1  0  0  0  0
 62 63  1  0  0  0  0
 63 64  1  0  0  0  0
 64 65  1  0  0  0  0
 65 66  1  0  0  0  0
 66 67  1  0  0  0  0
 67 68  1  0  0  0  0
 68 69  1  0  0  0  0
 69 70  1  0  0  0  0
 70 71  1  0  0  0  0
 71 72  1  0  0  0  0
 72 73  1  0  0  0  0
 73 74  1  0  0  0  0
 74 75  1  0  0  0  0
 75 76  1  0  0  0  0
 76 77  1  0  0  0  0
 77 78  1  0  0  0  0
 78 79  1  0  0  0  0
 79 80  1  0  0  0  0
 80 81  1  0  0  0  0
 81 96  1  0  0  0  0
M  END
$$$$
