
 OpenBabel04232216453D

 71 72  0  0  1  0  0  0  0  0999 V2000
    6.7685   -2.4476   -0.7214 C   0  0  0  0  0  0  0  0  0  0  0  0
    8.3105   -3.1825   -0.0021 C   0  0  0  0  0  0  0  0  0  0  0  0
    7.3773   -3.4324    1.1252 C   0  0  0  0  0  0  0  0  0  0  0  0
    7.7674   -2.9971    2.3086 C   0  0  0  0  0  0  0  0  0  0  0  0
    7.7344   -1.2779    1.8012 C   0  0  0  0  0  0  0  0  0  0  0  0
    8.2670   -4.7552    2.5553 C   0  0  0  0  0  0  0  0  0  0  0  0
    9.4112   -6.3932    2.8118 C   0  0  0  0  0  0  0  0  0  0  0  0
   11.1988   -6.5652    3.3250 C   0  0  3  0  0  0  0  0  0  0  0  0
   11.0921   -5.0799    2.8860 C   0  0  0  0  0  0  0  0  0  0  0  0
   10.2193   -3.9267    3.9492 C   0  0  0  0  0  0  0  0  0  0  0  0
   10.9057   -2.5659    4.1536 C   0  0  0  0  0  0  0  0  0  0  0  0
   12.1821   -3.0015    3.6090 C   0  0  0  0  0  0  0  0  0  0  0  0
   12.6828   -4.0075    4.4156 C   0  0  0  0  0  0  0  0  0  0  0  0
   11.9935   -2.5530    2.0666 C   0  0  0  0  0  0  0  0  0  0  0  0
   11.5568   -3.4062    1.0362 C   0  0  0  0  0  0  0  0  0  0  0  0
   13.1415   -4.5339    0.9833 C   0  0  0  0  0  0  0  0  0  0  0  0
   14.4853   -5.5939    1.9151 C   0  0  0  0  0  0  0  0  0  0  0  0
   16.2759   -5.4955    2.4805 C   0  0  0  0  0  0  0  0  0  0  0  0
   17.3206   -6.7547    3.2028 C   0  0  0  0  0  0  0  0  0  0  0  0
   19.0420   -6.7576    3.4600 C   0  0  0  0  0  0  0  0  0  0  0  0
   19.2903   -8.0784    4.1614 C   0  0  0  0  0  0  0  0  0  0  0  0
   19.7312   -9.3048    4.8215 C   0  0  0  0  0  0  0  0  0  0  0  0
   18.0618   -9.8654    5.0867 C   0  0  0  0  0  0  0  0  0  0  0  0
   16.3457   -9.4706    4.3836 C   0  0  0  0  0  0  0  0  0  0  0  0
   14.6648   -8.2183    4.0557 C   0  0  0  0  0  0  0  0  0  0  0  0
   12.9524   -7.6709    3.2991 C   0  0  0  0  0  0  0  0  0  0  0  0
    9.9013   -2.9987    0.2164 C   0  0  0  0  0  0  0  0  0  0  0  0
    5.8916   -3.1805   -0.6942 H   0  0  0  0  0  0  0  0  0  0  0  0
    6.7062   -2.0240   -1.7194 H   0  0  0  0  0  0  0  0  0  0  0  0
    6.2346   -1.6853   -0.0843 H   0  0  0  0  0  0  0  0  0  0  0  0
    6.2903   -3.7092    1.1315 H   0  0  0  0  0  0  0  0  0  0  0  0
    6.6623   -0.9538    1.6259 H   0  0  0  0  0  0  0  0  0  0  0  0
    8.1441   -0.9793    0.8010 H   0  0  0  0  0  0  0  0  0  0  0  0
    8.0285   -0.4618    2.4751 H   0  0  0  0  0  0  0  0  0  0  0  0
    7.7870   -5.3163    1.6251 H   0  0  0  0  0  0  0  0  0  0  0  0
    7.5140   -5.0044    3.2853 H   0  0  0  0  0  0  0  0  0  0  0  0
    8.8412   -6.8431    3.6452 H   0  0  0  0  0  0  0  0  0  0  0  0
    9.2933   -6.8759    1.8393 H   0  0  0  0  0  0  0  0  0  0  0  0
   11.1245   -6.6451    4.3781 H   0  0  0  0  0  0  0  0  0  0  0  0
   10.2573   -4.7124    2.2119 H   0  0  0  0  0  0  0  0  0  0  0  0
   11.2690   -5.3192    1.8122 H   0  0  0  0  0  0  0  0  0  0  0  0
    9.8261   -4.4203    4.8381 H   0  0  0  0  0  0  0  0  0  0  0  0
    9.3306   -3.4919    3.5521 H   0  0  0  0  0  0  0  0  0  0  0  0
   10.9779   -2.1863    5.1725 H   0  0  0  0  0  0  0  0  0  0  0  0
   10.4899   -1.7469    3.5428 H   0  0  0  0  0  0  0  0  0  0  0  0
   12.0412   -4.3238    5.2866 H   0  0  0  0  0  0  0  0  0  0  0  0
   13.2433   -4.9119    4.2331 H   0  0  0  0  0  0  0  0  0  0  0  0
   13.0130   -2.1835    1.8996 H   0  0  0  0  0  0  0  0  0  0  0  0
   13.5994   -3.8663    1.6954 H   0  0  0  0  0  0  0  0  0  0  0  0
   13.5982   -4.3102    0.0204 H   0  0  0  0  0  0  0  0  0  0  0  0
   14.4845   -6.5396    1.3735 H   0  0  0  0  0  0  0  0  0  0  0  0
   14.0422   -5.7367    2.8869 H   0  0  0  0  0  0  0  0  0  0  0  0
   16.2989   -4.7554    3.2918 H   0  0  0  0  0  0  0  0  0  0  0  0
   16.8712   -5.1868    1.6264 H   0  0  0  0  0  0  0  0  0  0  0  0
   17.1665   -7.6821    2.6335 H   0  0  0  0  0  0  0  0  0  0  0  0
   16.9626   -6.9335    4.2334 H   0  0  0  0  0  0  0  0  0  0  0  0
   19.4061   -5.9668    4.1295 H   0  0  0  0  0  0  0  0  0  0  0  0
   19.6267   -6.7666    2.5350 H   0  0  0  0  0  0  0  0  0  0  0  0
   18.9013   -8.6888    3.3479 H   0  0  0  0  0  0  0  0  0  0  0  0
   18.8161   -7.7745    5.0967 H   0  0  0  0  0  0  0  0  0  0  0  0
   20.3549   -9.1753    5.7478 H   0  0  0  0  0  0  0  0  0  0  0  0
   20.4046   -9.9617    4.2043 H   0  0  0  0  0  0  0  0  0  0  0  0
   18.2293  -10.9151    4.7519 H   0  0  0  0  0  0  0  0  0  0  0  0
   18.0249   -9.9540    6.1878 H   0  0  0  0  0  0  0  0  0  0  0  0
   15.8390  -10.1030    5.0522 H   0  0  0  0  0  0  0  0  0  0  0  0
   16.4442   -9.9174    3.3990 H   0  0  0  0  0  0  0  0  0  0  0  0
   14.3332   -8.3392    5.1218 H   0  0  0  0  0  0  0  0  0  0  0  0
   14.4663   -9.1313    3.4713 H   0  0  0  0  0  0  0  0  0  0  0  0
   12.3848   -8.6451    3.4786 H   0  0  0  0  0  0  0  0  0  0  0  0
   13.1410   -7.7576    2.2155 H   0  0  0  0  0  0  0  0  0  0  0  0
    9.8962   -1.9592    0.6310 H   0  0  0  0  0  0  0  0  0  0  0  0
  1  2  1  0  0  0  0
  1 28  1  0  0  0  0
  1 29  1  0  0  0  0
  1 30  1  0  0  0  0
  2  3  1  0  0  0  0
  2 27  2  3  0  0  0
  3  4  2  3  0  0  0
  3 31  1  0  0  0  0
  4  5  1  0  0  0  0
  4  6  1  0  0  0  0
  5 32  1  0  0  0  0
  5 33  1  0  0  0  0
  5 34  1  0  0  0  0
  6  7  1  0  0  0  0
  6 35  1  0  0  0  0
  6 36  1  0  0  0  0
  7  8  1  0  0  0  0
  7 37  1  0  0  0  0
  7 38  1  0  0  0  0
  8  9  1  0  0  0  0
  8 26  1  0  0  0  0
  8 39  1  0  0  0  0
  9 10  1  0  0  0  0
  9 40  1  0  0  0  0
  9 41  1  0  0  0  0
 10 11  1  0  0  0  0
 10 42  1  0  0  0  0
 10 43  1  0  0  0  0
 11 12  1  0  0  0  0
 11 44  1  0  0  0  0
 11 45  1  0  0  0  0
 12 13  2  0  0  0  0
 12 14  1  0  0  0  0
 13 46  1  0  0  0  0
 13 47  1  0  0  0  0
 14 15  2  3  0  0  0
 14 48  1  0  0  0  0
 15 16  1  0  0  0  0
 15 27  1  0  0  0  0
 16 17  1  0  0  0  0
 16 49  1  0  0  0  0
 16 50  1  0  0  0  0
 17 18  1  0  0  0  0
 17 51  1  0  0  0  0
 17 52  1  0  0  0  0
 18 19  1  0  0  0  0
 18 53  1  0  0  0  0
 18 54  1  0  0  0  0
 19 20  1  0  0  0  0
 19 55  1  0  0  0  0
 19 56  1  0  0  0  0
 20 21  1  0  0  0  0
 20 57  1  0  0  0  0
 20 58  1  0  0  0  0
 21 22  1  0  0  0  0
 21 59  1  0  0  0  0
 21 60  1  0  0  0  0
 22 23  1  0  0  0  0
 22 61  1  0  0  0  0
 22 62  1  0  0  0  0
 23 24  1  0  0  0  0
 23 63  1  0  0  0  0
 23 64  1  0  0  0  0
 24 25  1  0  0  0  0
 24 65  1  0  0  0  0
 24 66  1  0  0  0  0
 25 26  1  0  0  0  0
 25 67  1  0  0  0  0
 25 68  1  0  0  0  0
 26 69  1  0  0  0  0
 26 70  1  0  0  0  0
 27 71  1  0  0  0  0
M  END
$$$$
