
 OpenBabel04232216473D

236236  0  0  1  0  0  0  0  0999 V2000
    0.9455    0.0152   -0.1228 C   0  0  0  0  0  0  0  0  0  0  0  0
    2.4294   -0.0563   -0.0152 C   0  0  3  0  0  0  0  0  0  0  0  0
    3.2303   -0.8540   -1.0084 C   0  0  0  0  0  0  0  0  0  0  0  0
    3.2626    0.5962   -1.0085 C   0  0  3  0  0  3  0  0  0  0  0  0
    4.4954    1.3596   -0.6564 C   0  0  0  0  0  0  0  0  0  0  0  0
    4.2447    2.8628   -0.7310 C   0  0  0  0  0  0  0  0  0  0  0  0
    5.5075    3.6435   -0.3685 C   0  0  0  0  0  0  0  0  0  0  0  0
    5.2601    5.1470   -0.4465 C   0  0  0  0  0  0  0  0  0  0  0  0
    6.5227    5.9229   -0.0837 C   0  0  0  0  0  0  0  0  0  0  0  0
    6.2727    7.4221   -0.1628 C   0  0  0  0  0  0  0  0  0  0  0  0
    7.5325    8.1925    0.2010 C   0  0  0  0  0  0  0  0  0  0  0  0
    7.2771    9.6910    0.1209 C   0  0  0  0  0  0  0  0  0  0  0  0
    8.5370   10.4590    0.4848 C   0  0  0  0  0  0  0  0  0  0  0  0
    8.2802   11.9536    0.4043 C   0  0  0  0  0  0  0  0  0  0  0  0
    9.5403   12.7194    0.7681 C   0  0  0  0  0  0  0  0  0  0  0  0
    9.2823   14.2130    0.6867 C   0  0  0  0  0  0  0  0  0  0  0  0
   10.5422   14.9776    1.0487 C   0  0  0  0  0  0  0  0  0  0  0  0
   10.2834   16.4708    0.9670 C   0  0  0  0  0  0  0  0  0  0  0  0
   11.5434   17.2341    1.3292 C   0  0  0  0  0  0  0  0  0  0  0  0
   11.2841   18.7266    1.2473 C   0  0  0  0  0  0  0  0  0  0  0  0
   12.5443   19.4894    1.6093 C   0  0  0  0  0  0  0  0  0  0  0  0
   12.2846   20.9816    1.5278 C   0  0  0  0  0  0  0  0  0  0  0  0
   13.5447   21.7444    1.8894 C   0  0  0  0  0  0  0  0  0  0  0  0
   13.2846   23.2365    1.8080 C   0  0  0  0  0  0  0  0  0  0  0  0
   14.5448   23.9991    2.1696 C   0  0  0  0  0  0  0  0  0  0  0  0
   14.2847   25.4911    2.0884 C   0  0  0  0  0  0  0  0  0  0  0  0
   15.5445   26.2537    2.4517 C   0  0  0  0  0  0  0  0  0  0  0  0
   15.2845   27.7457    2.3702 C   0  0  0  0  0  0  0  0  0  0  0  0
   16.5447   28.5082    2.7319 C   0  0  0  0  0  0  0  0  0  0  0  0
   16.2839   30.0002    2.6527 C   0  0  0  0  0  0  0  0  0  0  0  0
   17.5441   30.7626    3.0142 C   0  0  0  0  0  0  0  0  0  0  0  0
   17.2830   32.2546    2.9365 C   0  0  0  0  0  0  0  0  0  0  0  0
   18.5437   33.0170    3.2965 C   0  0  0  0  0  0  0  0  0  0  0  0
   18.2826   34.5090    3.2188 C   0  0  0  0  0  0  0  0  0  0  0  0
   19.5434   35.2714    3.5787 C   0  0  0  0  0  0  0  0  0  0  0  0
   19.2822   36.7634    3.5010 C   0  0  0  0  0  0  0  0  0  0  0  0
   20.5431   37.5258    3.8604 C   0  0  0  0  0  0  0  0  0  0  0  0
   20.2817   39.0178    3.7835 C   0  0  0  0  0  0  0  0  0  0  0  0
   21.5427   39.7802    4.1425 C   0  0  0  0  0  0  0  0  0  0  0  0
   21.2808   41.2722    4.0674 C   0  0  0  0  0  0  0  0  0  0  0  0
   22.5423   42.0346    4.4247 C   0  0  0  0  0  0  0  0  0  0  0  0
   22.2804   43.5265    4.3497 C   0  0  0  0  0  0  0  0  0  0  0  0
   23.5419   44.2889    4.7068 C   0  0  0  0  0  0  0  0  0  0  0  0
   23.2800   45.7809    4.6319 C   0  0  0  0  0  0  0  0  0  0  0  0
   24.5420   46.5433    4.9871 C   0  0  0  0  0  0  0  0  0  0  0  0
   24.2796   48.0353    4.9139 C   0  0  0  0  0  0  0  0  0  0  0  0
   25.5421   48.7977    5.2676 C   0  0  0  0  0  0  0  0  0  0  0  0
   25.2794   50.2897    5.1955 C   0  0  0  0  0  0  0  0  0  0  0  0
   26.5422   51.0521    5.5479 C   0  0  0  0  0  0  0  0  0  0  0  0
   26.2800   52.5441    5.4742 C   0  0  0  0  0  0  0  0  0  0  0  0
   27.5430   53.3065    5.8261 C   0  0  0  0  0  0  0  0  0  0  0  0
   27.2808   54.7985    5.7523 C   0  0  0  0  0  0  0  0  0  0  0  0
   28.5442   55.5609    6.1026 C   0  0  0  0  0  0  0  0  0  0  0  0
   28.2820   57.0529    6.0286 C   0  0  0  0  0  0  0  0  0  0  0  0
   29.5455   57.8154    6.3787 C   0  0  0  0  0  0  0  0  0  0  0  0
   29.2839   59.3074    6.3029 C   0  0  0  0  0  0  0  0  0  0  0  0
   30.5474   60.0698    6.6530 C   0  0  0  0  0  0  0  0  0  0  0  0
   30.2859   61.5619    6.5750 C   0  0  0  0  0  0  0  0  0  0  0  0
   31.5499   62.3243    6.9266 C   0  0  0  0  0  0  0  0  0  0  0  0
   31.2850   63.8182    6.8510 C   0  0  0  0  0  0  0  0  0  0  0  0
   32.5503   64.5780    7.2021 C   0  0  0  0  0  0  0  0  0  0  0  0
   32.2898   66.0715    7.1285 C   0  0  0  0  0  0  0  0  0  0  0  0
   33.5520   66.8337    7.4801 C   0  0  0  0  0  0  0  0  0  0  0  0
   33.2903   68.3261    7.4050 C   0  0  0  0  0  0  0  0  0  0  0  0
   34.5537   69.0891    7.7552 C   0  0  0  0  0  0  0  0  0  0  0  0
   34.2921   70.5814    7.6802 C   0  0  0  0  0  0  0  0  0  0  0  0
   35.5551   71.3451    8.0307 C   0  0  0  0  0  0  0  0  0  0  0  0
   35.2943   72.8378    7.9542 C   0  0  0  0  0  0  0  0  0  0  0  0
   36.5577   73.6012    8.3072 C   0  0  0  0  0  0  0  0  0  0  0  0
   36.2979   75.0945    8.2295 C   0  0  0  0  0  0  0  0  0  0  0  0
   37.5608   75.8605    8.5801 C   0  0  0  0  0  0  0  0  0  0  0  0
   37.3012   77.3548    8.5012 C   0  0  0  0  0  0  0  0  0  0  0  0
   38.5649   78.1225    8.8514 C   0  0  0  0  0  0  0  0  0  0  0  0
   38.3076   79.6188    8.7738 C   0  0  0  0  0  0  0  0  0  0  0  0
   39.5703   80.3896    9.1255 C   0  0  0  0  0  0  0  0  0  0  0  0
   39.3165   81.8893    9.0496 C   0  0  0  0  0  0  0  0  0  0  0  0
   40.5809   82.6620    9.4030 C   0  0  0  0  0  0  0  0  0  0  0  0
   40.3383   84.1648    9.3331 C   0  0  0  0  0  0  0  0  0  0  0  0
   41.6003   84.9330    9.6848 C   0  0  0  0  0  0  0  0  0  0  0  0
    0.4865   -0.5655    0.6839 H   0  0  0  0  0  0  0  0  0  0  0  0
    0.5778   -0.3867   -1.0730 H   0  0  0  0  0  0  0  0  0  0  0  0
    0.6003    1.0500   -0.0307 H   0  0  0  0  0  0  0  0  0  0  0  0
    2.7702    0.0052    1.0113 H   0  0  0  0  0  0  0  0  0  0  0  0
    2.7356   -1.3009   -1.8612 H   0  0  0  0  0  0  0  0  0  0  0  0
    4.1221   -1.3640   -0.6683 H   0  0  0  0  0  0  0  0  0  0  0  0
    5.2951    1.0862   -1.3557 H   0  0  0  0  0  0  0  0  0  0  0  0
    4.8429    1.0918    0.3491 H   0  0  0  0  0  0  0  0  0  0  0  0
    3.4336    3.1433   -0.0470 H   0  0  0  0  0  0  0  0  0  0  0  0
    3.9218    3.1393   -1.7428 H   0  0  0  0  0  0  0  0  0  0  0  0
    6.3219    3.3687   -1.0501 H   0  0  0  0  0  0  0  0  0  0  0  0
    5.8299    3.3765    0.6454 H   0  0  0  0  0  0  0  0  0  0  0  0
    4.4499    5.4258    0.2355 H   0  0  0  0  0  0  0  0  0  0  0  0
    4.9413    5.4185   -1.4593 H   0  0  0  0  0  0  0  0  0  0  0  0
    7.3375    5.6471   -0.7659 H   0  0  0  0  0  0  0  0  0  0  0  0
    6.8455    5.6542    0.9304 H   0  0  0  0  0  0  0  0  0  0  0  0
    5.4583    7.6998    0.5189 H   0  0  0  0  0  0  0  0  0  0  0  0
    5.9520    7.6929   -1.1769 H   0  0  0  0  0  0  0  0  0  0  0  0
    8.3469    7.9193   -0.4801 H   0  0  0  0  0  0  0  0  0  0  0  0
    7.8535    7.9260    1.2149 H   0  0  0  0  0  0  0  0  0  0  0  0
    6.4636    9.9679    0.8026 H   0  0  0  0  0  0  0  0  0  0  0  0
    6.9573    9.9614   -0.8930 H   0  0  0  0  0  0  0  0  0  0  0  0
    9.3520   10.1843   -0.1964 H   0  0  0  0  0  0  0  0  0  0  0  0
    8.8585   10.1908    1.4988 H   0  0  0  0  0  0  0  0  0  0  0  0
    7.4667   12.2305    1.0861 H   0  0  0  0  0  0  0  0  0  0  0  0
    7.9604   12.2239   -0.6094 H   0  0  0  0  0  0  0  0  0  0  0  0
   10.3544   12.4439    0.0864 H   0  0  0  0  0  0  0  0  0  0  0  0
    9.8614   12.4511    1.7821 H   0  0  0  0  0  0  0  0  0  0  0  0
    8.4688   14.4897    1.3688 H   0  0  0  0  0  0  0  0  0  0  0  0
    8.9610   14.4824   -0.3270 H   0  0  0  0  0  0  0  0  0  0  0  0
   11.3558   14.7021    0.3664 H   0  0  0  0  0  0  0  0  0  0  0  0
   10.8644   14.7095    2.0626 H   0  0  0  0  0  0  0  0  0  0  0  0
    9.4700   16.7471    1.6493 H   0  0  0  0  0  0  0  0  0  0  0  0
    9.9621   16.7396   -0.0467 H   0  0  0  0  0  0  0  0  0  0  0  0
   12.3571   16.9583    0.6471 H   0  0  0  0  0  0  0  0  0  0  0  0
   11.8649   16.9659    2.3431 H   0  0  0  0  0  0  0  0  0  0  0  0
   10.4708   19.0030    1.9296 H   0  0  0  0  0  0  0  0  0  0  0  0
   10.9628   18.9954    0.2335 H   0  0  0  0  0  0  0  0  0  0  0  0
   13.3577   19.2136    0.9269 H   0  0  0  0  0  0  0  0  0  0  0  0
   12.8661   19.2208    2.6231 H   0  0  0  0  0  0  0  0  0  0  0  0
   11.4714   21.2577    2.2104 H   0  0  0  0  0  0  0  0  0  0  0  0
   11.9627   21.2505    0.5141 H   0  0  0  0  0  0  0  0  0  0  0  0
   14.3579   21.4687    1.2067 H   0  0  0  0  0  0  0  0  0  0  0  0
   13.8668   21.4756    2.9031 H   0  0  0  0  0  0  0  0  0  0  0  0
   12.4716   23.5123    2.4909 H   0  0  0  0  0  0  0  0  0  0  0  0
   12.9625   23.5054    0.7944 H   0  0  0  0  0  0  0  0  0  0  0  0
   15.3579   23.7235    1.4867 H   0  0  0  0  0  0  0  0  0  0  0  0
   14.8670   23.7302    3.1832 H   0  0  0  0  0  0  0  0  0  0  0  0
   13.4709   25.7668    2.7704 H   0  0  0  0  0  0  0  0  0  0  0  0
   13.9638   25.7603    1.0745 H   0  0  0  0  0  0  0  0  0  0  0  0
   16.3584   25.9779    1.7698 H   0  0  0  0  0  0  0  0  0  0  0  0
   15.8653   25.9847    3.4656 H   0  0  0  0  0  0  0  0  0  0  0  0
   14.4713   28.0214    3.0530 H   0  0  0  0  0  0  0  0  0  0  0  0
   14.9625   28.0146    1.3566 H   0  0  0  0  0  0  0  0  0  0  0  0
   17.3573   28.2335    2.0481 H   0  0  0  0  0  0  0  0  0  0  0  0
   16.8677   28.2382    3.7449 H   0  0  0  0  0  0  0  0  0  0  0  0
   15.4713   30.2747    3.3366 H   0  0  0  0  0  0  0  0  0  0  0  0
   15.9609   30.2703    1.6397 H   0  0  0  0  0  0  0  0  0  0  0  0
   18.3564   30.4887    2.3297 H   0  0  0  0  0  0  0  0  0  0  0  0
   17.8678   30.4919    4.0269 H   0  0  0  0  0  0  0  0  0  0  0  0
   16.4715   32.5286    3.6219 H   0  0  0  0  0  0  0  0  0  0  0  0
   16.9583   32.5254    1.9242 H   0  0  0  0  0  0  0  0  0  0  0  0
   19.3552   32.7431    2.6110 H   0  0  0  0  0  0  0  0  0  0  0  0
   18.8685   32.7463    4.3087 H   0  0  0  0  0  0  0  0  0  0  0  0
   17.4712   34.7830    3.9042 H   0  0  0  0  0  0  0  0  0  0  0  0
   17.9578   34.7798    2.2065 H   0  0  0  0  0  0  0  0  0  0  0  0
   20.3548   34.9974    2.8932 H   0  0  0  0  0  0  0  0  0  0  0  0
   19.8682   35.0007    4.5909 H   0  0  0  0  0  0  0  0  0  0  0  0
   18.4710   37.0374    4.1868 H   0  0  0  0  0  0  0  0  0  0  0  0
   18.9571   37.0341    2.4889 H   0  0  0  0  0  0  0  0  0  0  0  0
   21.3542   37.2522    3.1743 H   0  0  0  0  0  0  0  0  0  0  0  0
   20.8686   37.2547    4.8724 H   0  0  0  0  0  0  0  0  0  0  0  0
   19.4708   39.2914    4.4698 H   0  0  0  0  0  0  0  0  0  0  0  0
   19.9560   39.2889    2.7717 H   0  0  0  0  0  0  0  0  0  0  0  0
   22.3531   39.5074    3.4554 H   0  0  0  0  0  0  0  0  0  0  0  0
   21.8693   39.5082    5.1539 H   0  0  0  0  0  0  0  0  0  0  0  0
   20.4712   41.5450    4.7555 H   0  0  0  0  0  0  0  0  0  0  0  0
   20.9531   41.5441    3.0564 H   0  0  0  0  0  0  0  0  0  0  0  0
   23.3519   41.7618    3.7366 H   0  0  0  0  0  0  0  0  0  0  0  0
   22.8701   41.7626    5.4357 H   0  0  0  0  0  0  0  0  0  0  0  0
   21.4709   43.7994    5.0379 H   0  0  0  0  0  0  0  0  0  0  0  0
   21.9525   43.7984    3.3388 H   0  0  0  0  0  0  0  0  0  0  0  0
   24.3514   44.0161    4.0184 H   0  0  0  0  0  0  0  0  0  0  0  0
   23.8700   44.0170    5.7176 H   0  0  0  0  0  0  0  0  0  0  0  0
   22.4714   46.0538    5.3212 H   0  0  0  0  0  0  0  0  0  0  0  0
   22.9507   46.0528    3.6214 H   0  0  0  0  0  0  0  0  0  0  0  0
   25.3502   46.2712    4.2970 H   0  0  0  0  0  0  0  0  0  0  0  0
   24.8722   46.2707    5.9971 H   0  0  0  0  0  0  0  0  0  0  0  0
   23.4722   48.3074    5.6047 H   0  0  0  0  0  0  0  0  0  0  0  0
   23.9486   48.3078    3.9041 H   0  0  0  0  0  0  0  0  0  0  0  0
   26.3492   48.5260    4.5761 H   0  0  0  0  0  0  0  0  0  0  0  0
   25.8738   48.5246    6.2770 H   0  0  0  0  0  0  0  0  0  0  0  0
   24.4729   50.5614    5.8876 H   0  0  0  0  0  0  0  0  0  0  0  0
   24.9469   50.5626    4.1864 H   0  0  0  0  0  0  0  0  0  0  0  0
   27.3491   50.7795    4.8564 H   0  0  0  0  0  0  0  0  0  0  0  0
   26.8741   50.7799    6.5574 H   0  0  0  0  0  0  0  0  0  0  0  0
   25.4733   52.8168    6.1657 H   0  0  0  0  0  0  0  0  0  0  0  0
   25.9479   52.8161    4.4646 H   0  0  0  0  0  0  0  0  0  0  0  0
   28.3496   53.0337    5.1345 H   0  0  0  0  0  0  0  0  0  0  0  0
   27.8751   53.0345    6.8356 H   0  0  0  0  0  0  0  0  0  0  0  0
   26.4749   55.0714    6.4448 H   0  0  0  0  0  0  0  0  0  0  0  0
   26.9475   55.0703    4.7431 H   0  0  0  0  0  0  0  0  0  0  0  0
   29.3500   55.2879    5.4101 H   0  0  0  0  0  0  0  0  0  0  0  0
   28.8775   55.2892    7.1118 H   0  0  0  0  0  0  0  0  0  0  0  0
   27.4762   57.3260    6.7212 H   0  0  0  0  0  0  0  0  0  0  0  0
   27.9486   57.3245    5.0194 H   0  0  0  0  0  0  0  0  0  0  0  0
   30.3516   57.5413    5.6870 H   0  0  0  0  0  0  0  0  0  0  0  0
   29.8781   57.5447    7.3884 H   0  0  0  0  0  0  0  0  0  0  0  0
   28.4777   59.5816    6.9945 H   0  0  0  0  0  0  0  0  0  0  0  0
   28.9513   59.5780    5.2931 H   0  0  0  0  0  0  0  0  0  0  0  0
   31.3540   59.7948    5.9622 H   0  0  0  0  0  0  0  0  0  0  0  0
   30.8792   59.8001    7.6632 H   0  0  0  0  0  0  0  0  0  0  0  0
   29.4792   61.8368    7.2655 H   0  0  0  0  0  0  0  0  0  0  0  0
   29.9553   61.8316    5.5649 H   0  0  0  0  0  0  0  0  0  0  0  0
   32.3559   62.0506    6.2352 H   0  0  0  0  0  0  0  0  0  0  0  0
   31.8806   62.0535    7.9356 H   0  0  0  0  0  0  0  0  0  0  0  0
   30.4813   64.0898    7.5424 H   0  0  0  0  0  0  0  0  0  0  0  0
   30.9554   64.0874    5.8417 H   0  0  0  0  0  0  0  0  0  0  0  0
   33.3566   64.3064    6.5095 H   0  0  0  0  0  0  0  0  0  0  0  0
   32.8830   64.3074    8.2106 H   0  0  0  0  0  0  0  0  0  0  0  0
   31.4826   66.3455    7.8198 H   0  0  0  0  0  0  0  0  0  0  0  0
   31.9566   66.3431    6.1193 H   0  0  0  0  0  0  0  0  0  0  0  0
   34.3594   66.5601    6.7896 H   0  0  0  0  0  0  0  0  0  0  0  0
   33.8834   66.5623    8.4902 H   0  0  0  0  0  0  0  0  0  0  0  0
   32.4842   68.5994    8.0968 H   0  0  0  0  0  0  0  0  0  0  0  0
   32.9574   68.5969    6.3955 H   0  0  0  0  0  0  0  0  0  0  0  0
   35.3596   68.8149    7.0631 H   0  0  0  0  0  0  0  0  0  0  0  0
   34.8865   68.8175    8.7647 H   0  0  0  0  0  0  0  0  0  0  0  0
   33.4858   70.8546    8.3720 H   0  0  0  0  0  0  0  0  0  0  0  0
   33.9593   70.8521    6.6705 H   0  0  0  0  0  0  0  0  0  0  0  0
   36.3616   71.0707    7.3396 H   0  0  0  0  0  0  0  0  0  0  0  0
   35.8870   71.0747    9.0406 H   0  0  0  0  0  0  0  0  0  0  0  0
   34.4868   73.1126    8.6439 H   0  0  0  0  0  0  0  0  0  0  0  0
   34.9638   73.1083    6.9439 H   0  0  0  0  0  0  0  0  0  0  0  0
   37.3654   73.3254    7.6180 H   0  0  0  0  0  0  0  0  0  0  0  0
   36.8872   73.3306    9.3178 H   0  0  0  0  0  0  0  0  0  0  0  0
   35.4905   75.3687    8.9195 H   0  0  0  0  0  0  0  0  0  0  0  0
   35.9665   75.3629    7.2188 H   0  0  0  0  0  0  0  0  0  0  0  0
   38.3677   75.5844    7.8902 H   0  0  0  0  0  0  0  0  0  0  0  0
   37.8914   75.5910    9.5907 H   0  0  0  0  0  0  0  0  0  0  0  0
   36.4937   77.6295    9.1909 H   0  0  0  0  0  0  0  0  0  0  0  0
   36.9696   77.6222    7.4905 H   0  0  0  0  0  0  0  0  0  0  0  0
   39.3709   77.8456    8.1608 H   0  0  0  0  0  0  0  0  0  0  0  0
   38.8959   77.8519    9.8615 H   0  0  0  0  0  0  0  0  0  0  0  0
   37.4992   79.8920    9.4629 H   0  0  0  0  0  0  0  0  0  0  0  0
   37.9764   79.8858    7.7628 H   0  0  0  0  0  0  0  0  0  0  0  0
   40.3774   80.1125    8.4361 H   0  0  0  0  0  0  0  0  0  0  0  0
   39.9002   80.1180   10.1359 H   0  0  0  0  0  0  0  0  0  0  0  0
   38.5076   82.1618    9.7385 H   0  0  0  0  0  0  0  0  0  0  0  0
   38.9855   82.1569    8.0387 H   0  0  0  0  0  0  0  0  0  0  0  0
   41.3865   82.3830    8.7127 H   0  0  0  0  0  0  0  0  0  0  0  0
   40.9101   82.3854   10.4122 H   0  0  0  0  0  0  0  0  0  0  0  0
   39.5357   84.4460   10.0247 H   0  0  0  0  0  0  0  0  0  0  0  0
   40.0114   84.4437    8.3245 H   0  0  0  0  0  0  0  0  0  0  0  0
   41.9326   84.6907   10.6997 H   0  0  0  0  0  0  0  0  0  0  0  0
   41.4164   86.0091    9.6321 H   0  0  0  0  0  0  0  0  0  0  0  0
   42.4106   84.6882    8.9911 H   0  0  0  0  0  0  0  0  0  0  0  0
  1  2  1  0  0  0  0
  1 80  1  0  0  0  0
  1 81  1  0  0  0  0
  1 82  1  0  0  0  0
  2  3  1  0  0  0  0
  2  4  1  0  0  0  0
  2 83  1  0  0  0  0
  3  4  1  0  0  0  0
  3 84  1  0  0  0  0
  3 85  1  0  0  0  0
  4  5  1  0  0  0  0
  5  6  1  0  0  0  0
  5 86  1  0  0  0  0
  5 87  1  0  0  0  0
  6  7  1  0  0  0  0
  6 88  1  0  0  0  0
  6 89  1  0  0  0  0
  7  8  1  0  0  0  0
  7 90  1  0  0  0  0
  7 91  1  0  0  0  0
  8  9  1  0  0  0  0
  8 92  1  0  0  0  0
  8 93  1  0  0  0  0
  9 10  1  0  0  0  0
  9 94  1  0  0  0  0
  9 95  1  0  0  0  0
 10 11  1  0  0  0  0
 10 96  1  0  0  0  0
 10 97  1  0  0  0  0
 11 12  1  0  0  0  0
 11 98  1  0  0  0  0
 11 99  1  0  0  0  0
 12 13  1  0  0  0  0
 12100  1  0  0  0  0
 12101  1  0  0  0  0
 13 14  1  0  0  0  0
 13102  1  0  0  0  0
 13103  1  0  0  0  0
 14 15  1  0  0  0  0
 14104  1  0  0  0  0
 14105  1  0  0  0  0
 15 16  1  0  0  0  0
 15106  1  0  0  0  0
 15107  1  0  0  0  0
 16 17  1  0  0  0  0
 16108  1  0  0  0  0
 16109  1  0  0  0  0
 17 18  1  0  0  0  0
 17110  1  0  0  0  0
 17111  1  0  0  0  0
 18 19  1  0  0  0  0
 18112  1  0  0  0  0
 18113  1  0  0  0  0
 19 20  1  0  0  0  0
 19114  1  0  0  0  0
 19115  1  0  0  0  0
 20 21  1  0  0  0  0
 20116  1  0  0  0  0
 20117  1  0  0  0  0
 21 22  1  0  0  0  0
 21118  1  0  0  0  0
 21119  1  0  0  0  0
 22 23  1  0  0  0  0
 22120  1  0  0  0  0
 22121  1  0  0  0  0
 23 24  1  0  0  0  0
 23122  1  0  0  0  0
 23123  1  0  0  0  0
 24 25  1  0  0  0  0
 24124  1  0  0  0  0
 24125  1  0  0  0  0
 25 26  1  0  0  0  0
 25126  1  0  0  0  0
 25127  1  0  0  0  0
 26 27  1  0  0  0  0
 26128  1  0  0  0  0
 26129  1  0  0  0  0
 27 28  1  0  0  0  0
 27130  1  0  0  0  0
 27131  1  0  0  0  0
 28 29  1  0  0  0  0
 28132  1  0  0  0  0
 28133  1  0  0  0  0
 29 30  1  0  0  0  0
 29134  1  0  0  0  0
 29135  1  0  0  0  0
 30 31  1  0  0  0  0
 30136  1  0  0  0  0
 30137  1  0  0  0  0
 31 32  1  0  0  0  0
 31138  1  0  0  0  0
 31139  1  0  0  0  0
 32 33  1  0  0  0  0
 32140  1  0  0  0  0
 32141  1  0  0  0  0
 33 34  1  0  0  0  0
 33142  1  0  0  0  0
 33143  1  0  0  0  0
 34 35  1  0  0  0  0
 34144  1  0  0  0  0
 34145  1  0  0  0  0
 35 36  1  0  0  0  0
 35146  1  0  0  0  0
 35147  1  0  0  0  0
 36 37  1  0  0  0  0
 36148  1  0  0  0  0
 36149  1  0  0  0  0
 37 38  1  0  0  0  0
 37150  1  0  0  0  0
 37151  1  0  0  0  0
 38 39  1  0  0  0  0
 38152  1  0  0  0  0
 38153  1  0  0  0  0
 39 40  1  0  0  0  0
 39154  1  0  0  0  0
 39155  1  0  0  0  0
 40 41  1  0  0  0  0
 40156  1  0  0  0  0
 40157  1  0  0  0  0
 41 42  1  0  0  0  0
 41158  1  0  0  0  0
 41159  1  0  0  0  0
 42 43  1  0  0  0  0
 42160  1  0  0  0  0
 42161  1  0  0  0  0
 43 44  1  0  0  0  0
 43162  1  0  0  0  0
 43163  1  0  0  0  0
 44 45  1  0  0  0  0
 44164  1  0  0  0  0
 44165  1  0  0  0  0
 45 46  1  0  0  0  0
 45166  1  0  0  0  0
 45167  1  0  0  0  0
 46 47  1  0  0  0  0
 46168  1  0  0  0  0
 46169  1  0  0  0  0
 47 48  1  0  0  0  0
 47170  1  0  0  0  0
 47171  1  0  0  0  0
 48 49  1  0  0  0  0
 48172  1  0  0  0  0
 48173  1  0  0  0  0
 49 50  1  0  0  0  0
 49174  1  0  0  0  0
 49175  1  0  0  0  0
 50 51  1  0  0  0  0
 50176  1  0  0  0  0
 50177  1  0  0  0  0
 51 52  1  0  0  0  0
 51178  1  0  0  0  0
 51179  1  0  0  0  0
 52 53  1  0  0  0  0
 52180  1  0  0  0  0
 52181  1  0  0  0  0
 53 54  1  0  0  0  0
 53182  1  0  0  0  0
 53183  1  0  0  0  0
 54 55  1  0  0  0  0
 54184  1  0  0  0  0
 54185  1  0  0  0  0
 55 56  1  0  0  0  0
 55186  1  0  0  0  0
 55187  1  0  0  0  0
 56 57  1  0  0  0  0
 56188  1  0  0  0  0
 56189  1  0  0  0  0
 57 58  1  0  0  0  0
 57190  1  0  0  0  0
 57191  1  0  0  0  0
 58 59  1  0  0  0  0
 58192  1  0  0  0  0
 58193  1  0  0  0  0
 59 60  1  0  0  0  0
 59194  1  0  0  0  0
 59195  1  0  0  0  0
 60 61  1  0  0  0  0
 60196  1  0  0  0  0
 60197  1  0  0  0  0
 61 62  1  0  0  0  0
 61198  1  0  0  0  0
 61199  1  0  0  0  0
 62 63  1  0  0  0  0
 62200  1  0  0  0  0
 62201  1  0  0  0  0
 63 64  1  0  0  0  0
 63202  1  0  0  0  0
 63203  1  0  0  0  0
 64 65  1  0  0  0  0
 64204  1  0  0  0  0
 64205  1  0  0  0  0
 65 66  1  0  0  0  0
 65206  1  0  0  0  0
 65207  1  0  0  0  0
 66 67  1  0  0  0  0
 66208  1  0  0  0  0
 66209  1  0  0  0  0
 67 68  1  0  0  0  0
 67210  1  0  0  0  0
 67211  1  0  0  0  0
 68 69  1  0  0  0  0
 68212  1  0  0  0  0
 68213  1  0  0  0  0
 69 70  1  0  0  0  0
 69214  1  0  0  0  0
 69215  1  0  0  0  0
 70 71  1  0  0  0  0
 70216  1  0  0  0  0
 70217  1  0  0  0  0
 71 72  1  0  0  0  0
 71218  1  0  0  0  0
 71219  1  0  0  0  0
 72 73  1  0  0  0  0
 72220  1  0  0  0  0
 72221  1  0  0  0  0
 73 74  1  0  0  0  0
 73222  1  0  0  0  0
 73223  1  0  0  0  0
 74 75  1  0  0  0  0
 74224  1  0  0  0  0
 74225  1  0  0  0  0
 75 76  1  0  0  0  0
 75226  1  0  0  0  0
 75227  1  0  0  0  0
 76 77  1  0  0  0  0
 76228  1  0  0  0  0
 76229  1  0  0  0  0
 77 78  1  0  0  0  0
 77230  1  0  0  0  0
 77231  1  0  0  0  0
 78 79  1  0  0  0  0
 78232  1  0  0  0  0
 78233  1  0  0  0  0
 79234  1  0  0  0  0
 79235  1  0  0  0  0
 79236  1  0  0  0  0
M  END
$$$$
