
 OpenBabel04232216553D

 47 47  0  0  0  0  0  0  0  0999 V2000
    4.3820    1.5896    2.2188 C   0  0  0  0  0  0  0  0  0  0  0  0
    5.2198    2.5425    1.3824 N   0  0  0  0  0  0  0  0  0  0  0  0
    4.6668    2.6595    0.0617 C   0  0  0  0  0  0  0  0  0  0  0  0
    3.2648    3.2566   -0.0298 C   0  0  0  0  0  0  0  0  0  0  0  0
    4.8734    1.7441   -0.9291 C   0  0  0  0  0  0  0  0  0  0  0  0
    4.7965    0.2235   -0.8542 C   0  0  0  0  0  0  0  0  0  0  0  0
    5.8139    2.2375   -1.9345 C   0  0  0  0  0  0  0  0  0  0  0  0
    7.1391    2.1519   -1.6743 C   0  0  0  0  0  0  0  0  0  0  0  0
    7.7498    0.9929   -0.9206 C   0  0  0  0  0  0  0  0  0  0  0  0
    7.9514    3.3791   -1.7486 C   0  0  0  0  0  0  0  0  0  0  0  0
    7.1315    4.6776   -1.5677 C   0  0  0  0  0  0  0  0  0  0  0  0
    9.3163    3.3991   -1.6577 C   0  0  0  0  0  0  0  0  0  0  0  0
   10.2922    2.2559   -1.4722 C   0  0  0  0  0  0  0  0  0  0  0  0
    9.9599    4.6704   -1.3062 C   0  0  0  0  0  0  0  0  0  0  0  0
   10.3016    4.6752   -0.0020 C   0  0  0  0  0  0  0  0  0  0  0  0
    9.4267    5.2759    0.9983 C   0  0  0  0  0  0  0  0  0  0  0  0
    9.8100    6.7501    1.0789 C   0  0  0  0  0  0  0  0  0  0  0  0
    8.3684    4.6916    1.6606 C   0  0  0  0  0  0  0  0  0  0  0  0
    7.8018    3.2882    1.7243 C   0  0  0  0  0  0  0  0  0  0  0  0
    6.6363    2.5529    1.6686 C   0  0  0  0  0  0  0  0  0  0  0  0
    3.4250    2.0420    2.5019 H   0  0  0  0  0  0  0  0  0  0  0  0
    4.8927    1.2544    3.1229 H   0  0  0  0  0  0  0  0  0  0  0  0
    4.1294    0.6810    1.6589 H   0  0  0  0  0  0  0  0  0  0  0  0
    2.5040    2.4627   -0.0354 H   0  0  0  0  0  0  0  0  0  0  0  0
    3.1624    3.8513   -0.9412 H   0  0  0  0  0  0  0  0  0  0  0  0
    3.0558    3.9023    0.8255 H   0  0  0  0  0  0  0  0  0  0  0  0
    3.7671   -0.1337   -0.9394 H   0  0  0  0  0  0  0  0  0  0  0  0
    5.2033   -0.1544    0.0858 H   0  0  0  0  0  0  0  0  0  0  0  0
    5.3558   -0.2567   -1.6689 H   0  0  0  0  0  0  0  0  0  0  0  0
    5.4091    3.0833   -2.4918 H   0  0  0  0  0  0  0  0  0  0  0  0
    7.0710    0.3167   -0.4195 H   0  0  0  0  0  0  0  0  0  0  0  0
    8.4088    1.3103   -0.1098 H   0  0  0  0  0  0  0  0  0  0  0  0
    8.2854    0.3607   -1.6300 H   0  0  0  0  0  0  0  0  0  0  0  0
    6.1041    4.5685   -1.2069 H   0  0  0  0  0  0  0  0  0  0  0  0
    7.1108    5.2961   -2.4655 H   0  0  0  0  0  0  0  0  0  0  0  0
    7.5427    5.3397   -0.7814 H   0  0  0  0  0  0  0  0  0  0  0  0
    9.9913    1.2941   -1.8873 H   0  0  0  0  0  0  0  0  0  0  0  0
   10.4807    2.0860   -0.4002 H   0  0  0  0  0  0  0  0  0  0  0  0
   11.2626    2.4826   -1.9311 H   0  0  0  0  0  0  0  0  0  0  0  0
    9.4197    5.5241   -1.7220 H   0  0  0  0  0  0  0  0  0  0  0  0
   11.0306    3.9689    0.3843 H   0  0  0  0  0  0  0  0  0  0  0  0
    8.9304    7.3985    1.1073 H   0  0  0  0  0  0  0  0  0  0  0  0
   10.3702    7.0851    0.1885 H   0  0  0  0  0  0  0  0  0  0  0  0
   10.4663    6.9492    1.9301 H   0  0  0  0  0  0  0  0  0  0  0  0
    8.0395    5.2837    2.5156 H   0  0  0  0  0  0  0  0  0  0  0  0
    8.6540    2.6553    2.0346 H   0  0  0  0  0  0  0  0  0  0  0  0
    6.8186    1.5388    1.9968 H   0  0  0  0  0  0  0  0  0  0  0  0
  1  2  1  0  0  0  0
  1 21  1  0  0  0  0
  1 22  1  0  0  0  0
  1 23  1  0  0  0  0
  2  3  1  0  0  0  0
  2 20  1  0  0  0  0
  3  4  1  0  0  0  0
  3  5  2  0  0  0  0
  4 24  1  0  0  0  0
  4 25  1  0  0  0  0
  4 26  1  0  0  0  0
  5  6  1  0  0  0  0
  5  7  1  0  0  0  0
  6 27  1  0  0  0  0
  6 28  1  0  0  0  0
  6 29  1  0  0  0  0
  7  8  2  0  0  0  0
  7 30  1  0  0  0  0
  8  9  1  0  0  0  0
  8 10  1  0  0  0  0
  9 31  1  0  0  0  0
  9 32  1  0  0  0  0
  9 33  1  0  0  0  0
 10 11  1  0  0  0  0
 10 12  2  0  0  0  0
 11 34  1  0  0  0  0
 11 35  1  0  0  0  0
 11 36  1  0  0  0  0
 12 13  1  0  0  0  0
 12 14  1  0  0  0  0
 13 37  1  0  0  0  0
 13 38  1  0  0  0  0
 13 39  1  0  0  0  0
 14 15  2  0  0  0  0
 14 40  1  0  0  0  0
 15 16  1  0  0  0  0
 15 41  1  0  0  0  0
 16 17  1  0  0  0  0
 16 18  2  0  0  0  0
 17 42  1  0  0  0  0
 17 43  1  0  0  0  0
 17 44  1  0  0  0  0
 18 19  1  0  0  0  0
 18 45  1  0  0  0  0
 19 20  2  0  0  0  0
 19 46  1  0  0  0  0
 20 47  1  0  0  0  0
M  END
$$$$
