
 OpenBabel04232216513D

 48 48  0  0  0  0  0  0  0  0999 V2000
    6.5756   -0.0238    3.0479 C   0  0  0  0  0  0  0  0  0  0  0  0
    7.6139    0.8563    2.3343 C   0  0  0  0  0  0  0  0  0  0  0  0
    7.1907    0.9726    1.0039 N   0  0  0  0  0  0  0  0  0  0  0  0
    6.1058    1.6553    0.7377 C   0  0  0  0  0  0  0  0  0  0  0  0
    5.3591    2.6761    1.5409 C   0  0  0  0  0  0  0  0  0  0  0  0
    4.5460    2.4106    2.6290 O   0  0  0  0  0  0  0  0  0  0  0  0
    3.6120    3.4892    2.8915 C   0  0  0  0  0  0  0  0  0  0  0  0
    3.0100    3.3232    4.2836 C   0  0  0  0  0  0  0  0  0  0  0  0
    2.0440    4.4463    4.6192 C   0  0  0  0  0  0  0  0  0  0  0  0
    6.0515    3.8240    1.3602 C   0  0  0  0  0  0  0  0  0  0  0  0
    6.7025    4.5388    2.4472 C   0  0  0  0  0  0  0  0  0  0  0  0
    8.0121    4.7320    2.2361 C   0  0  0  0  0  0  0  0  0  0  0  0
    9.0614    5.2579    3.0367 C   0  0  0  0  0  0  0  0  0  0  0  0
    8.8072    5.5983    4.4693 C   0  0  0  0  0  0  0  0  0  0  0  0
   10.2217    5.1625    2.3891 C   0  0  0  0  0  0  0  0  0  0  0  0
   11.3956    4.5377    2.7972 N   0  0  0  0  0  0  0  0  0  0  0  0
   11.2601    3.2666    3.0018 C   0  0  0  0  0  0  0  0  0  0  0  0
   10.2824    2.6611    4.0620 C   0  0  0  0  0  0  0  0  0  0  0  0
   10.7861    3.0713    5.3099 N   0  0  0  0  0  0  0  0  0  0  0  0
    9.8286    1.3697    3.8248 C   0  0  0  0  0  0  0  0  0  0  0  0
   10.8753    0.2989    4.1729 C   0  0  0  0  0  0  0  0  0  0  0  0
   11.1816    0.2130    5.5719 O   0  0  0  0  0  0  0  0  0  0  0  0
    8.9484    1.0494    2.6274 C   0  0  0  0  0  0  0  0  0  0  0  0
    5.8576    0.5101    3.6772 H   0  0  0  0  0  0  0  0  0  0  0  0
    7.0086   -0.8828    3.5711 H   0  0  0  0  0  0  0  0  0  0  0  0
    5.9420   -0.5110    2.2631 H   0  0  0  0  0  0  0  0  0  0  0  0
    5.7776    1.6196   -0.3151 H   0  0  0  0  0  0  0  0  0  0  0  0
    2.8218    3.4785    2.1300 H   0  0  0  0  0  0  0  0  0  0  0  0
    4.0877    4.4744    2.8564 H   0  0  0  0  0  0  0  0  0  0  0  0
    3.8135    3.3003    5.0281 H   0  0  0  0  0  0  0  0  0  0  0  0
    2.5009    2.3578    4.3496 H   0  0  0  0  0  0  0  0  0  0  0  0
    2.5502    5.4152    4.6608 H   0  0  0  0  0  0  0  0  0  0  0  0
    1.5812    4.2725    5.6023 H   0  0  0  0  0  0  0  0  0  0  0  0
    1.2352    4.5167    3.8822 H   0  0  0  0  0  0  0  0  0  0  0  0
    6.5996    3.9176    0.4198 H   0  0  0  0  0  0  0  0  0  0  0  0
    6.2215    4.7577    3.3923 H   0  0  0  0  0  0  0  0  0  0  0  0
    8.3887    4.2458    1.3254 H   0  0  0  0  0  0  0  0  0  0  0  0
    7.9055    6.2172    4.5384 H   0  0  0  0  0  0  0  0  0  0  0  0
    9.6282    6.1853    4.8958 H   0  0  0  0  0  0  0  0  0  0  0  0
    8.6181    4.7119    5.0773 H   0  0  0  0  0  0  0  0  0  0  0  0
   10.2205    5.1150    1.3020 H   0  0  0  0  0  0  0  0  0  0  0  0
   12.1602    2.6487    2.8574 H   0  0  0  0  0  0  0  0  0  0  0  0
   10.4139    4.0109    5.4598 H   0  0  0  0  0  0  0  0  0  0  0  0
   11.7829    3.2954    5.2144 H   0  0  0  0  0  0  0  0  0  0  0  0
   11.8175    0.5046    3.6538 H   0  0  0  0  0  0  0  0  0  0  0  0
   10.5411   -0.7009    3.8727 H   0  0  0  0  0  0  0  0  0  0  0  0
   12.1042    0.4744    5.6925 H   0  0  0  0  0  0  0  0  0  0  0  0
    9.5842    0.9335    1.7395 H   0  0  0  0  0  0  0  0  0  0  0  0
  1  2  1  0  0  0  0
  1 24  1  0  0  0  0
  1 25  1  0  0  0  0
  1 26  1  0  0  0  0
  2  3  1  0  0  0  0
  2 23  2  0  0  0  0
  3  4  2  0  0  0  0
  4  5  1  0  0  0  0
  4 27  1  0  0  0  0
  5  6  1  0  0  0  0
  5 10  2  0  0  0  0
  6  7  1  0  0  0  0
  7  8  1  0  0  0  0
  7 28  1  0  0  0  0
  7 29  1  0  0  0  0
  8  9  1  0  0  0  0
  8 30  1  0  0  0  0
  8 31  1  0  0  0  0
  9 32  1  0  0  0  0
  9 33  1  0  0  0  0
  9 34  1  0  0  0  0
 10 11  1  0  0  0  0
 10 35  1  0  0  0  0
 11 12  2  0  0  0  0
 11 36  1  0  0  0  0
 12 13  1  0  0  0  0
 12 37  1  0  0  0  0
 13 14  1  0  0  0  0
 13 15  2  0  0  0  0
 14 38  1  0  0  0  0
 14 39  1  0  0  0  0
 14 40  1  0  0  0  0
 15 16  1  0  0  0  0
 15 41  1  0  0  0  0
 16 17  2  0  0  0  0
 17 18  1  0  0  0  0
 17 42  1  0  0  0  0
 18 19  1  0  0  0  0
 18 20  2  0  0  0  0
 19 43  1  0  0  0  0
 19 44  1  0  0  0  0
 20 21  1  0  0  0  0
 20 23  1  0  0  0  0
 21 22  1  0  0  0  0
 21 45  1  0  0  0  0
 21 46  1  0  0  0  0
 22 47  1  0  0  0  0
 23 48  1  0  0  0  0
M  END
$$$$
