
 OpenBabel04232216433D

 51 53  0  0  0  0  0  0  0  0999 V2000
    2.7612   -1.4685    0.4830 C   0  0  0  0  0  0  0  0  0  0  0  0
    2.8307   -0.2324    1.3547 C   0  0  0  0  0  0  0  0  0  0  0  0
    2.9833   -0.3636    2.6881 C   0  0  0  0  0  0  0  0  0  0  0  0
    4.2111    0.2197    3.2073 C   0  0  0  0  0  0  0  0  0  0  0  0
    5.0621   -0.6040    3.8577 C   0  0  0  0  0  0  0  0  0  0  0  0
    6.4438   -0.5503    3.3900 C   0  0  0  0  0  0  0  0  0  0  0  0
    6.8351   -1.6455    2.7076 C   0  0  0  0  0  0  0  0  0  0  0  0
    7.0623   -2.9653    3.4011 C   0  0  0  0  0  0  0  0  0  0  0  0
    7.2539   -1.3203    1.2765 C   0  0  0  0  0  0  0  0  0  0  0  0
    8.7731   -1.0557    1.1756 C   0  0  0  0  0  0  0  0  0  0  0  0
    9.0922    0.0380    0.3439 O   0  0  0  0  0  0  0  0  0  0  0  0
    6.5013   -1.2307    0.1738 N   0  0  0  0  0  0  0  0  0  0  0  0
    5.2169   -1.8165    0.1729 C   0  0  0  0  0  0  0  0  0  0  0  0
    5.3994   -3.3249    0.3967 C   0  0  0  0  0  0  0  0  0  0  0  0
    4.0211   -1.4448   -0.4451 C   0  0  0  0  0  0  0  0  0  0  0  0
    3.6888   -0.6797   -1.8067 C   0  0  0  0  0  0  0  0  0  0  0  0
    2.5189   -0.2891   -2.9562 C   0  0  0  0  0  0  0  0  0  0  0  0
    2.6823    0.6318   -4.0686 C   0  0  0  0  0  0  0  0  0  0  0  0
    1.5059    0.3000   -4.5897 C   0  0  0  0  0  0  0  0  0  0  0  0
    1.2543   -0.5529   -3.4555 C   0  0  0  0  0  0  0  0  0  0  0  0
    0.0485   -1.4264   -3.4900 C   0  0  0  0  0  0  0  0  0  0  0  0
   -1.0590   -1.0590   -4.3026 C   0  0  0  0  0  0  0  0  0  0  0  0
   -1.8433   -2.0466   -4.9001 C   0  0  0  0  0  0  0  0  0  0  0  0
   -1.5390   -3.3788   -4.6617 C   0  0  0  0  0  0  0  0  0  0  0  0
   -0.5860   -3.7125   -3.6900 C   0  0  0  0  0  0  0  0  0  0  0  0
    0.1630   -2.7260   -3.0420 C   0  0  0  0  0  0  0  0  0  0  0  0
    1.8184   -1.4542   -0.0759 H   0  0  0  0  0  0  0  0  0  0  0  0
    2.7528   -2.3891    1.0780 H   0  0  0  0  0  0  0  0  0  0  0  0
    3.2353    0.6442    0.8512 H   0  0  0  0  0  0  0  0  0  0  0  0
    2.6340   -1.2658    3.1776 H   0  0  0  0  0  0  0  0  0  0  0  0
    4.6221    1.0539    2.6307 H   0  0  0  0  0  0  0  0  0  0  0  0
    4.7039   -1.5528    4.2559 H   0  0  0  0  0  0  0  0  0  0  0  0
    6.7024    0.4303    2.9868 H   0  0  0  0  0  0  0  0  0  0  0  0
    6.1254   -3.5146    3.5402 H   0  0  0  0  0  0  0  0  0  0  0  0
    7.4802   -2.8142    4.4088 H   0  0  0  0  0  0  0  0  0  0  0  0
    7.7701   -3.6089    2.8701 H   0  0  0  0  0  0  0  0  0  0  0  0
    9.2597   -1.9599    0.7931 H   0  0  0  0  0  0  0  0  0  0  0  0
    9.1982   -0.8609    2.1701 H   0  0  0  0  0  0  0  0  0  0  0  0
    8.4891   -0.0404   -0.4140 H   0  0  0  0  0  0  0  0  0  0  0  0
    6.3517   -3.6265   -0.0723 H   0  0  0  0  0  0  0  0  0  0  0  0
    4.6281   -3.9450   -0.0585 H   0  0  0  0  0  0  0  0  0  0  0  0
    5.4756   -3.5785    1.4515 H   0  0  0  0  0  0  0  0  0  0  0  0
    2.8962   -1.4495   -1.7583 H   0  0  0  0  0  0  0  0  0  0  0  0
    3.6619    0.3395   -1.4014 H   0  0  0  0  0  0  0  0  0  0  0  0
    3.5072    1.2360   -4.4627 H   0  0  0  0  0  0  0  0  0  0  0  0
    0.9671    0.4838   -5.5118 H   0  0  0  0  0  0  0  0  0  0  0  0
   -1.2508   -0.0215   -4.5699 H   0  0  0  0  0  0  0  0  0  0  0  0
   -2.6183   -1.7749   -5.6169 H   0  0  0  0  0  0  0  0  0  0  0  0
   -2.0199   -4.1585   -5.2476 H   0  0  0  0  0  0  0  0  0  0  0  0
   -0.3558   -4.7573   -3.5061 H   0  0  0  0  0  0  0  0  0  0  0  0
    0.9518   -3.0046   -2.3536 H   0  0  0  0  0  0  0  0  0  0  0  0
  1  2  1  0  0  0  0
  1 15  1  0  0  0  0
  1 27  1  0  0  0  0
  1 28  1  0  0  0  0
  2  3  2  3  0  0  0
  2 29  1  0  0  0  0
  3  4  1  0  0  0  0
  3 30  1  0  0  0  0
  4  5  2  3  0  0  0
  4 31  1  0  0  0  0
  5  6  1  0  0  0  0
  5 32  1  0  0  0  0
  6  7  2  3  0  0  0
  6 33  1  0  0  0  0
  7  8  1  0  0  0  0
  7  9  1  0  0  0  0
  8 34  1  0  0  0  0
  8 35  1  0  0  0  0
  8 36  1  0  0  0  0
  9 10  1  0  0  0  0
  9 12  2  3  0  0  0
 10 11  1  0  0  0  0
 10 37  1  0  0  0  0
 10 38  1  0  0  0  0
 11 39  1  0  0  0  0
 12 13  1  0  0  0  0
 13 14  1  0  0  0  0
 13 15  2  3  0  0  0
 14 40  1  0  0  0  0
 14 41  1  0  0  0  0
 14 42  1  0  0  0  0
 15 16  1  0  0  0  0
 16 17  1  0  0  0  0
 16 43  1  0  0  0  0
 16 44  1  0  0  0  0
 17 18  1  0  0  0  0
 17 20  2  0  0  0  0
 18 19  2  0  0  0  0
 18 45  1  0  0  0  0
 19 20  1  0  0  0  0
 19 46  1  0  0  0  0
 20 21  1  0  0  0  0
 21 22  1  0  0  0  0
 21 26  2  0  0  0  0
 22 23  2  0  0  0  0
 22 47  1  0  0  0  0
 23 24  1  0  0  0  0
 23 48  1  0  0  0  0
 24 25  2  0  0  0  0
 24 49  1  0  0  0  0
 25 26  1  0  0  0  0
 25 50  1  0  0  0  0
 26 51  1  0  0  0  0
M  END
$$$$
