
 OpenBabel04232216533D

145144  0  0  0  0  0  0  0  0999 V2000
    0.9989    0.0154    0.0534 C   0  0  0  0  0  0  0  0  0  0  0  0
    2.5139    0.0031    0.0462 C   0  0  0  0  0  0  0  0  0  0  0  0
    3.0430   -1.2234   -0.6645 C   0  0  0  0  0  0  0  0  0  0  0  0
    4.5610   -1.2341   -0.6729 C   0  0  0  0  0  0  0  0  0  0  0  0
    5.0772   -2.4738   -1.3913 C   0  0  0  0  0  0  0  0  0  0  0  0
    6.5971   -2.4748   -1.3942 C   0  0  0  0  0  0  0  0  0  0  0  0
    7.1075   -3.7141   -2.1145 C   0  0  0  0  0  0  0  0  0  0  0  0
    8.6270   -3.7173   -2.1165 C   0  0  0  0  0  0  0  0  0  0  0  0
    9.1369   -4.9527   -2.8344 C   0  0  0  0  0  0  0  0  0  0  0  0
   10.6538   -4.9558   -2.8385 C   0  0  0  0  0  0  0  0  0  0  0  0
   11.1639   -6.1917   -3.5548 C   0  0  0  0  0  0  0  0  0  0  0  0
   12.6806   -6.1939   -3.5606 C   0  0  0  0  0  0  0  0  0  0  0  0
   13.1907   -7.4287   -4.2783 C   0  0  0  0  0  0  0  0  0  0  0  0
   14.7074   -7.4319   -4.2825 C   0  0  0  0  0  0  0  0  0  0  0  0
   15.2175   -8.6667   -5.0003 C   0  0  0  0  0  0  0  0  0  0  0  0
   16.7341   -8.6688   -5.0062 C   0  0  0  0  0  0  0  0  0  0  0  0
   17.2443   -9.9027   -5.7257 C   0  0  0  0  0  0  0  0  0  0  0  0
   18.7608   -9.9058   -5.7299 C   0  0  0  0  0  0  0  0  0  0  0  0
   19.2708  -11.1388   -6.4512 C   0  0  0  0  0  0  0  0  0  0  0  0
   20.7884  -11.1429   -6.4537 C   0  0  0  0  0  0  0  0  0  0  0  0
   21.2975  -12.3755   -7.1771 C   0  0  0  0  0  0  0  0  0  0  0  0
   22.8178  -12.3781   -7.1810 C   0  0  0  0  0  0  0  0  0  0  0  0
   23.3213  -13.6131   -7.9082 C   0  0  0  0  0  0  0  0  0  0  0  0
   24.8473  -13.6132   -7.9083 C   0  0  0  0  0  0  0  0  0  0  0  0
   25.3619  -14.8487   -8.6357 C   0  0  0  0  0  0  0  0  0  0  0  0
   26.8864  -14.8532   -8.6361 C   0  0  0  0  0  0  0  0  0  0  0  0
   27.3927  -16.0938   -9.3666 C   0  0  0  0  0  0  0  0  0  0  0  0
   28.9262  -16.1097   -9.3737 C   0  0  0  0  0  0  0  0  0  0  0  0
   29.4611  -17.3349  -10.0952 C   0  0  0  0  0  0  0  0  0  0  0  0
   30.9744  -17.3633  -10.1130 C   0  0  0  0  0  0  0  0  0  0  0  0
   31.5081  -18.5734  -10.8145 C   0  0  0  0  0  0  0  0  0  0  0  0
   33.3611  -18.6306  -10.8254 S   0  0  0  0  0  0  0  0  0  0  0  0
   33.9266  -18.6752   -8.8453 S   0  0  0  0  0  0  0  0  0  0  0  0
   33.1451  -20.4063   -8.0354 S   0  0  0  0  0  0  0  0  0  0  0  0
   33.9793  -22.0260   -9.0164 S   0  0  0  0  0  0  0  0  0  0  0  0
   33.1493  -23.7566   -8.1884 S   0  0  0  0  0  0  0  0  0  0  0  0
   33.9455  -25.4037   -9.2142 S   0  0  0  0  0  0  0  0  0  0  0  0
   33.1444  -27.1591   -8.3789 S   0  0  0  0  0  0  0  0  0  0  0  0
   33.9441  -28.8118   -9.4097 S   0  0  0  0  0  0  0  0  0  0  0  0
   33.1452  -30.5749   -8.5782 S   0  0  0  0  0  0  0  0  0  0  0  0
   33.9456  -32.2298   -9.6099 S   0  0  0  0  0  0  0  0  0  0  0  0
   33.1469  -33.9953   -8.7787 S   0  0  0  0  0  0  0  0  0  0  0  0
   33.9472  -35.6516   -9.8103 S   0  0  0  0  0  0  0  0  0  0  0  0
   33.1484  -37.4179   -8.9790 S   0  0  0  0  0  0  0  0  0  0  0  0
   33.9486  -39.0747  -10.0105 S   0  0  0  0  0  0  0  0  0  0  0  0
   33.1498  -40.8412   -9.1793 S   0  0  0  0  0  0  0  0  0  0  0  0
   33.9500  -42.4980  -10.2108 S   0  0  0  0  0  0  0  0  0  0  0  0
   33.1513  -44.2646   -9.3796 S   0  0  0  0  0  0  0  0  0  0  0  0
   33.9515  -45.9215  -10.4111 S   0  0  0  0  0  0  0  0  0  0  0  0
   33.1527  -47.6880   -9.5799 S   0  0  0  0  0  0  0  0  0  0  0  0
   33.9529  -49.3449  -10.6114 S   0  0  0  0  0  0  0  0  0  0  0  0
   33.1541  -51.1114   -9.7802 S   0  0  0  0  0  0  0  0  0  0  0  0
   33.9543  -52.7683  -10.8117 S   0  0  0  0  0  0  0  0  0  0  0  0
   33.1556  -54.5348   -9.9805 S   0  0  0  0  0  0  0  0  0  0  0  0
   33.9558  -56.1917  -11.0120 S   0  0  0  0  0  0  0  0  0  0  0  0
   33.1570  -57.9583  -10.1808 S   0  0  0  0  0  0  0  0  0  0  0  0
   33.9572  -59.6152  -11.2123 S   0  0  0  0  0  0  0  0  0  0  0  0
   33.1584  -61.3817  -10.3811 S   0  0  0  0  0  0  0  0  0  0  0  0
   33.9586  -63.0386  -11.4126 S   0  0  0  0  0  0  0  0  0  0  0  0
   33.1599  -64.8051  -10.5814 S   0  0  0  0  0  0  0  0  0  0  0  0
   33.9601  -66.4620  -11.6129 S   0  0  0  0  0  0  0  0  0  0  0  0
   33.1613  -68.2285  -10.7817 S   0  0  0  0  0  0  0  0  0  0  0  0
   33.9615  -69.8854  -11.8132 S   0  0  0  0  0  0  0  0  0  0  0  0
   33.1627  -71.6520  -10.9820 S   0  0  0  0  0  0  0  0  0  0  0  0
   33.9629  -73.3089  -12.0135 S   0  0  0  0  0  0  0  0  0  0  0  0
   33.1642  -75.0754  -11.1823 S   0  0  0  0  0  0  0  0  0  0  0  0
   33.9644  -76.7323  -12.2138 S   0  0  0  0  0  0  0  0  0  0  0  0
   33.1656  -78.4987  -11.3826 S   0  0  0  0  0  0  0  0  0  0  0  0
   33.9658  -80.1555  -12.4141 S   0  0  0  0  0  0  0  0  0  0  0  0
   33.1670  -81.9217  -11.5829 S   0  0  0  0  0  0  0  0  0  0  0  0
   33.9673  -83.5778  -12.6144 S   0  0  0  0  0  0  0  0  0  0  0  0
   33.1685  -85.3429  -11.7831 S   0  0  0  0  0  0  0  0  0  0  0  0
   33.9687  -86.9971  -12.8145 S   0  0  0  0  0  0  0  0  0  0  0  0
   33.1697  -88.7587  -11.9827 S   0  0  0  0  0  0  0  0  0  0  0  0
   33.9699  -90.4079  -13.0136 S   0  0  0  0  0  0  0  0  0  0  0  0
   33.1692  -92.1600  -12.1802 S   0  0  0  0  0  0  0  0  0  0  0  0
   33.9704  -93.7961  -13.2110 S   0  0  0  0  0  0  0  0  0  0  0  0
   33.1873  -95.5268  -12.3555 S   0  0  0  0  0  0  0  0  0  0  0  0
   33.9285  -97.1419  -13.4266 S   0  0  0  0  0  0  0  0  0  0  0  0
   33.1660  -98.8527  -12.5448 S   0  0  0  0  0  0  0  0  0  0  0  0
   31.1352  -98.7810  -12.8495 S   0  0  0  0  0  0  0  0  0  0  0  0
    0.6236    0.8987    0.5651 H   0  0  0  0  0  0  0  0  0  0  0  0
    0.6077   -0.8725    0.5655 H   0  0  0  0  0  0  0  0  0  0  0  0
    0.6077    0.0180   -0.9716 H   0  0  0  0  0  0  0  0  0  0  0  0
    2.8841    0.0277    1.0813 H   0  0  0  0  0  0  0  0  0  0  0  0
    2.8839    0.9134   -0.4473 H   0  0  0  0  0  0  0  0  0  0  0  0
    2.6668   -1.2506   -1.7022 H   0  0  0  0  0  0  0  0  0  0  0  0
    2.6691   -2.1373   -0.1701 H   0  0  0  0  0  0  0  0  0  0  0  0
    4.9403   -1.2171    0.3576 H   0  0  0  0  0  0  0  0  0  0  0  0
    4.9379   -0.3315   -1.1725 H   0  0  0  0  0  0  0  0  0  0  0  0
    4.7033   -2.4906   -2.4200 H   0  0  0  0  0  0  0  0  0  0  0  0
    4.7057   -3.3747   -0.8924 H   0  0  0  0  0  0  0  0  0  0  0  0
    6.9749   -2.4618   -0.3673 H   0  0  0  0  0  0  0  0  0  0  0  0
    6.9727   -1.5761   -1.8929 H   0  0  0  0  0  0  0  0  0  0  0  0
    6.7340   -3.7290   -3.1443 H   0  0  0  0  0  0  0  0  0  0  0  0
    6.7341   -4.6163   -1.6178 H   0  0  0  0  0  0  0  0  0  0  0  0
    9.0024   -3.7018   -1.0862 H   0  0  0  0  0  0  0  0  0  0  0  0
    9.0024   -2.8145   -2.6129 H   0  0  0  0  0  0  0  0  0  0  0  0
    8.7602   -4.9691   -3.8645 H   0  0  0  0  0  0  0  0  0  0  0  0
    8.7624   -5.8557   -2.3372 H   0  0  0  0  0  0  0  0  0  0  0  0
   11.0310   -4.9380   -1.8087 H   0  0  0  0  0  0  0  0  0  0  0  0
   11.0285   -4.0533   -3.3372 H   0  0  0  0  0  0  0  0  0  0  0  0
   10.7859   -6.2104   -4.5843 H   0  0  0  0  0  0  0  0  0  0  0  0
   10.7906   -7.0943   -3.0554 H   0  0  0  0  0  0  0  0  0  0  0  0
   13.0587   -6.1766   -2.5310 H   0  0  0  0  0  0  0  0  0  0  0  0
   13.0542   -5.2907   -4.0587 H   0  0  0  0  0  0  0  0  0  0  0  0
   12.8137   -7.4452   -5.3084 H   0  0  0  0  0  0  0  0  0  0  0  0
   12.8162   -8.3320   -3.7812 H   0  0  0  0  0  0  0  0  0  0  0  0
   15.0844   -7.4154   -3.2525 H   0  0  0  0  0  0  0  0  0  0  0  0
   15.0819   -6.5286   -4.7798 H   0  0  0  0  0  0  0  0  0  0  0  0
   14.8393   -8.6839   -6.0300 H   0  0  0  0  0  0  0  0  0  0  0  0
   14.8440   -9.5700   -4.5023 H   0  0  0  0  0  0  0  0  0  0  0  0
   17.1122   -8.6530   -3.9765 H   0  0  0  0  0  0  0  0  0  0  0  0
   17.1076   -7.7649   -5.5030 H   0  0  0  0  0  0  0  0  0  0  0  0
   16.8671   -9.9176   -6.7558 H   0  0  0  0  0  0  0  0  0  0  0  0
   16.8696  -10.8067   -5.2298 H   0  0  0  0  0  0  0  0  0  0  0  0
   19.1378   -9.8922   -4.6997 H   0  0  0  0  0  0  0  0  0  0  0  0
   19.1355   -9.0012   -6.2246 H   0  0  0  0  0  0  0  0  0  0  0  0
   18.8952  -11.1515   -7.4817 H   0  0  0  0  0  0  0  0  0  0  0  0
   18.8954  -12.0433   -5.9575 H   0  0  0  0  0  0  0  0  0  0  0  0
   21.1634  -11.1315   -5.4232 H   0  0  0  0  0  0  0  0  0  0  0  0
   21.1634  -10.2376   -6.9462 H   0  0  0  0  0  0  0  0  0  0  0  0
   20.9216  -12.3870   -8.2067 H   0  0  0  0  0  0  0  0  0  0  0  0
   20.9238  -13.2800   -6.6835 H   0  0  0  0  0  0  0  0  0  0  0  0
   23.1915  -12.3677   -6.1517 H   0  0  0  0  0  0  0  0  0  0  0  0
   23.1893  -11.4730   -7.6729 H   0  0  0  0  0  0  0  0  0  0  0  0
   22.9492  -13.6200   -8.9367 H   0  0  0  0  0  0  0  0  0  0  0  0
   22.9493  -14.5159   -7.4153 H   0  0  0  0  0  0  0  0  0  0  0  0
   25.2163  -13.6051   -6.8816 H   0  0  0  0  0  0  0  0  0  0  0  0
   25.2164  -12.7115   -8.3991 H   0  0  0  0  0  0  0  0  0  0  0  0
   24.9877  -14.8546   -9.6674 H   0  0  0  0  0  0  0  0  0  0  0  0
   24.9855  -15.7536   -8.1422 H   0  0  0  0  0  0  0  0  0  0  0  0
   27.2535  -14.8442   -7.6067 H   0  0  0  0  0  0  0  0  0  0  0  0
   27.2559  -13.9487   -9.1258 H   0  0  0  0  0  0  0  0  0  0  0  0
   27.0191  -16.0969  -10.3940 H   0  0  0  0  0  0  0  0  0  0  0  0
   27.0168  -16.9937   -8.8726 H   0  0  0  0  0  0  0  0  0  0  0  0
   29.2949  -16.0935   -8.3390 H   0  0  0  0  0  0  0  0  0  0  0  0
   29.2973  -15.1971   -9.8594 H   0  0  0  0  0  0  0  0  0  0  0  0
   29.0796  -17.3504  -11.1322 H   0  0  0  0  0  0  0  0  0  0  0  0
   29.0773  -18.2493   -9.6072 H   0  0  0  0  0  0  0  0  0  0  0  0
   31.3303  -17.3338   -9.0676 H   0  0  0  0  0  0  0  0  0  0  0  0
   31.3548  -16.4524  -10.5976 H   0  0  0  0  0  0  0  0  0  0  0  0
   31.1888  -18.6056  -11.8637 H   0  0  0  0  0  0  0  0  0  0  0  0
   31.1752  -19.5074  -10.3507 H   0  0  0  0  0  0  0  0  0  0  0  0
   30.7385  -99.9234  -12.2612 H   0  0  0  0  0  0  0  0  0  0  0  0
  1  2  1  0  0  0  0
  1 82  1  0  0  0  0
  1 83  1  0  0  0  0
  1 84  1  0  0  0  0
  2  3  1  0  0  0  0
  2 85  1  0  0  0  0
  2 86  1  0  0  0  0
  3  4  1  0  0  0  0
  3 87  1  0  0  0  0
  3 88  1  0  0  0  0
  4  5  1  0  0  0  0
  4 89  1  0  0  0  0
  4 90  1  0  0  0  0
  5  6  1  0  0  0  0
  5 91  1  0  0  0  0
  5 92  1  0  0  0  0
  6  7  1  0  0  0  0
  6 93  1  0  0  0  0
  6 94  1  0  0  0  0
  7  8  1  0  0  0  0
  7 95  1  0  0  0  0
  7 96  1  0  0  0  0
  8  9  1  0  0  0  0
  8 97  1  0  0  0  0
  8 98  1  0  0  0  0
  9 10  1  0  0  0  0
  9 99  1  0  0  0  0
  9100  1  0  0  0  0
 10 11  1  0  0  0  0
 10101  1  0  0  0  0
 10102  1  0  0  0  0
 11 12  1  0  0  0  0
 11103  1  0  0  0  0
 11104  1  0  0  0  0
 12 13  1  0  0  0  0
 12105  1  0  0  0  0
 12106  1  0  0  0  0
 13 14  1  0  0  0  0
 13107  1  0  0  0  0
 13108  1  0  0  0  0
 14 15  1  0  0  0  0
 14109  1  0  0  0  0
 14110  1  0  0  0  0
 15 16  1  0  0  0  0
 15111  1  0  0  0  0
 15112  1  0  0  0  0
 16 17  1  0  0  0  0
 16113  1  0  0  0  0
 16114  1  0  0  0  0
 17 18  1  0  0  0  0
 17115  1  0  0  0  0
 17116  1  0  0  0  0
 18 19  1  0  0  0  0
 18117  1  0  0  0  0
 18118  1  0  0  0  0
 19 20  1  0  0  0  0
 19119  1  0  0  0  0
 19120  1  0  0  0  0
 20 21  1  0  0  0  0
 20121  1  0  0  0  0
 20122  1  0  0  0  0
 21 22  1  0  0  0  0
 21123  1  0  0  0  0
 21124  1  0  0  0  0
 22 23  1  0  0  0  0
 22125  1  0  0  0  0
 22126  1  0  0  0  0
 23 24  1  0  0  0  0
 23127  1  0  0  0  0
 23128  1  0  0  0  0
 24 25  1  0  0  0  0
 24129  1  0  0  0  0
 24130  1  0  0  0  0
 25 26  1  0  0  0  0
 25131  1  0  0  0  0
 25132  1  0  0  0  0
 26 27  1  0  0  0  0
 26133  1  0  0  0  0
 26134  1  0  0  0  0
 27 28  1  0  0  0  0
 27135  1  0  0  0  0
 27136  1  0  0  0  0
 28 29  1  0  0  0  0
 28137  1  0  0  0  0
 28138  1  0  0  0  0
 29 30  1  0  0  0  0
 29139  1  0  0  0  0
 29140  1  0  0  0  0
 30 31  1  0  0  0  0
 30141  1  0  0  0  0
 30142  1  0  0  0  0
 31 32  1  0  0  0  0
 31143  1  0  0  0  0
 31144  1  0  0  0  0
 32 33  1  0  0  0  0
 33 34  1  0  0  0  0
 34 35  1  0  0  0  0
 35 36  1  0  0  0  0
 36 37  1  0  0  0  0
 37 38  1  0  0  0  0
 38 39  1  0  0  0  0
 39 40  1  0  0  0  0
 40 41  1  0  0  0  0
 41 42  1  0  0  0  0
 42 43  1  0  0  0  0
 43 44  1  0  0  0  0
 44 45  1  0  0  0  0
 45 46  1  0  0  0  0
 46 47  1  0  0  0  0
 47 48  1  0  0  0  0
 48 49  1  0  0  0  0
 49 50  1  0  0  0  0
 50 51  1  0  0  0  0
 51 52  1  0  0  0  0
 52 53  1  0  0  0  0
 53 54  1  0  0  0  0
 54 55  1  0  0  0  0
 55 56  1  0  0  0  0
 56 57  1  0  0  0  0
 57 58  1  0  0  0  0
 58 59  1  0  0  0  0
 59 60  1  0  0  0  0
 60 61  1  0  0  0  0
 61 62  1  0  0  0  0
 62 63  1  0  0  0  0
 63 64  1  0  0  0  0
 64 65  1  0  0  0  0
 65 66  1  0  0  0  0
 66 67  1  0  0  0  0
 67 68  1  0  0  0  0
 68 69  1  0  0  0  0
 69 70  1  0  0  0  0
 70 71  1  0  0  0  0
 71 72  1  0  0  0  0
 72 73  1  0  0  0  0
 73 74  1  0  0  0  0
 74 75  1  0  0  0  0
 75 76  1  0  0  0  0
 76 77  1  0  0  0  0
 77 78  1  0  0  0  0
 78 79  1  0  0  0  0
 79 80  1  0  0  0  0
 80 81  1  0  0  0  0
 81145  1  0  0  0  0
M  END
$$$$
