
 OpenBabel04232216413D

175174  0  0  0  0  0  0  0  0999 V2000
   66.9569    8.3625    1.7925 C   0  0  0  0  0  0  0  0  0  0  0  0
   66.6864    8.7282    3.0557 C   0  0  0  0  0  0  0  0  0  0  0  0
   65.3041    8.9664    3.5960 C   0  0  0  0  0  0  0  0  0  0  0  0
   65.1543   10.3360    4.1038 N   0  0  0  0  0  0  0  0  0  0  0  0
   63.8073   10.4564    4.6363 N   0  0  0  0  0  0  0  0  0  0  0  0
   63.5887   11.7098    5.2618 N   0  0  0  0  0  0  0  0  0  0  0  0
   62.2793   11.7886    5.7746 N   0  0  0  0  0  0  0  0  0  0  0  0
   62.0951   13.1326    6.1943 N   0  0  0  0  0  0  0  0  0  0  0  0
   60.7910   13.3375    6.6973 N   0  0  0  0  0  0  0  0  0  0  0  0
   60.6669   14.6601    7.1996 N   0  0  0  0  0  0  0  0  0  0  0  0
   59.3142   14.8722    7.6493 N   0  0  0  0  0  0  0  0  0  0  0  0
   59.1302   16.1526    8.2452 N   0  0  0  0  0  0  0  0  0  0  0  0
   57.8393   16.2252    8.8000 N   0  0  0  0  0  0  0  0  0  0  0  0
   57.6528   17.5444    9.2870 N   0  0  0  0  0  0  0  0  0  0  0  0
   56.3167   17.7612    9.7306 N   0  0  0  0  0  0  0  0  0  0  0  0
   56.0634   16.9612   10.8752 N   0  0  0  0  0  0  0  0  0  0  0  0
   54.7276   17.0934   11.3151 N   0  0  0  0  0  0  0  0  0  0  0  0
   54.5196   16.1024   12.3678 C   0  0  0  0  0  0  0  0  0  0  0  0
   53.1052   16.2860   12.9074 C   0  0  0  0  0  0  0  0  0  0  0  0
   52.8193   15.3149   14.0463 C   0  0  0  0  0  0  0  0  0  0  0  0
   51.4329   15.5784   14.6253 C   0  0  0  0  0  0  0  0  0  0  0  0
   51.1192   14.6090   15.7548 C   0  0  0  0  0  0  0  0  0  0  0  0
   49.7049   14.7987   16.2885 C   0  0  0  0  0  0  0  0  0  0  0  0
   49.3942   13.7572   17.3604 C   0  0  0  0  0  0  0  0  0  0  0  0
   47.9775   13.9301   17.9012 C   0  0  0  0  0  0  0  0  0  0  0  0
   47.7017   12.9375   19.0338 C   0  0  0  0  0  0  0  0  0  0  0  0
   46.2954   13.1262   19.6012 C   0  0  0  0  0  0  0  0  0  0  0  0
   46.0214   11.9647   20.9876 S   0  0  0  0  0  0  0  0  0  0  0  0
   44.2501   12.2705   21.3327 C   0  0  0  0  0  0  0  0  0  0  0  0
   43.2463   11.9075   19.8589 S   0  0  0  0  0  0  0  0  0  0  0  0
   41.5648   12.1849   20.4726 C   0  0  0  0  0  0  0  0  0  0  0  0
   40.3236   11.9598   19.1251 S   0  0  0  0  0  0  0  0  0  0  0  0
   40.5931   10.2034   18.6851 C   0  0  0  0  0  0  0  0  0  0  0  0
   40.1070    9.1220   20.0620 S   0  0  0  0  0  0  0  0  0  0  0  0
   40.6093    7.4894   19.4217 C   0  0  0  0  0  0  0  0  0  0  0  0
   42.3967    7.4603   19.1036 S   0  0  0  0  0  0  0  0  0  0  0  0
   42.6376    5.6949   18.7474 C   0  0  0  0  0  0  0  0  0  0  0  0
   44.3567    5.3877   18.2197 S   0  0  0  0  0  0  0  0  0  0  0  0
   45.2637    5.8905   19.7104 C   0  0  0  0  0  0  0  0  0  0  0  0
   47.0563    5.6704   19.5240 S   0  0  0  0  0  0  0  0  0  0  0  0
   47.3927    6.8222   18.1616 C   0  0  0  0  0  0  0  0  0  0  0  0
   49.1757    6.9168   17.8214 S   0  0  0  0  0  0  0  0  0  0  0  0
   49.5256    5.2046   17.3121 C   0  0  0  0  0  0  0  0  0  0  0  0
   51.2446    4.9320   16.7598 S   0  0  0  0  0  0  0  0  0  0  0  0
   52.1822    5.5462   18.1895 C   0  0  0  0  0  0  0  0  0  0  0  0
   53.9911    5.5144   17.9342 S   0  0  0  0  0  0  0  0  0  0  0  0
   54.2766    6.6746   16.7909 N   0  0  0  0  0  0  0  0  0  0  0  0
   53.9316    8.1961   17.2931 S   0  0  0  0  0  0  0  0  0  0  0  0
   54.3966    9.1899   16.0592 N   0  0  0  0  0  0  0  0  0  0  0  0
   53.6385    8.9755   14.6066 S   0  0  0  0  0  0  0  0  0  0  0  0
   52.0206    8.8450   14.8837 N   0  0  0  0  0  0  0  0  0  0  0  0
   51.2519   10.2649   15.2644 S   0  0  0  0  0  0  0  0  0  0  0  0
   51.6798   11.4686   14.2222 N   0  0  0  0  0  0  0  0  0  0  0  0
   50.9572   11.4831   12.7456 S   0  0  0  0  0  0  0  0  0  0  0  0
   49.3197   11.3722   12.8936 N   0  0  0  0  0  0  0  0  0  0  0  0
   48.5067   12.7156   13.3965 S   0  0  0  0  0  0  0  0  0  0  0  0
   48.8847   14.0215   12.4569 N   0  0  0  0  0  0  0  0  0  0  0  0
   48.3405   13.9542   10.9049 S   0  0  0  0  0  0  0  0  0  0  0  0
   46.6899   13.8604   10.9572 N   0  0  0  0  0  0  0  0  0  0  0  0
   46.0140   13.7740    9.4540 S   0  0  0  0  0  0  0  0  0  0  0  0
   46.6390   12.4350    8.6990 N   0  0  0  0  0  0  0  0  0  0  0  0
   46.4155   11.0666    9.1523 C   0  0  0  0  0  0  0  0  0  0  0  0
   45.0041   10.7181    9.0664 N   0  0  0  0  0  0  0  0  0  0  0  0
   44.5498   10.7078    7.7098 C   0  0  0  0  0  0  0  0  0  0  0  0
   43.1492   10.3633    7.7733 N   0  0  0  0  0  0  0  0  0  0  0  0
   42.6367   10.4043    6.4288 C   0  0  0  0  0  0  0  0  0  0  0  0
   41.2360   10.0469    6.4514 N   0  0  0  0  0  0  0  0  0  0  0  0
   40.7414   10.0363    5.0772 C   0  0  0  0  0  0  0  0  0  0  0  0
   39.3673    9.5681    5.0511 N   0  0  0  0  0  0  0  0  0  0  0  0
   38.7912    9.6519    3.7133 C   0  0  0  0  0  0  0  0  0  0  0  0
   37.3596    9.3151    3.7784 N   0  0  0  0  0  0  0  0  0  0  0  0
   36.7334    9.3076    2.4197 C   0  0  0  0  0  0  0  0  0  0  0  0
   35.2659    8.9314    2.3757 N   0  0  0  0  0  0  0  0  0  0  0  0
   34.7569    8.9101    0.9908 C   0  0  0  0  0  0  0  0  0  0  0  0
   33.3381    8.4784    0.9227 N   0  0  0  0  0  0  0  0  0  0  0  0
   32.8168    8.5671   -0.4318 C   0  0  0  0  0  0  0  0  0  0  0  0
   31.3744    8.2177   -0.4646 N   0  0  0  0  0  0  0  0  0  0  0  0
   30.8995    8.1820   -1.8384 C   0  0  0  0  0  0  0  0  0  0  0  0
   29.4908    7.7751   -1.8422 N   0  0  0  0  0  0  0  0  0  0  0  0
   28.9472    7.8311   -3.1837 C   0  0  0  0  0  0  0  0  0  0  0  0
   67.9779    8.1969    1.4607 H   0  0  0  0  0  0  0  0  0  0  0  0
   66.1623    8.2442    1.0645 H   0  0  0  0  0  0  0  0  0  0  0  0
   67.5210    8.8233    3.7508 H   0  0  0  0  0  0  0  0  0  0  0  0
   65.1388    8.2400    4.4029 H   0  0  0  0  0  0  0  0  0  0  0  0
   64.5503    8.7668    2.8201 H   0  0  0  0  0  0  0  0  0  0  0  0
   65.2863   10.9808    3.3185 H   0  0  0  0  0  0  0  0  0  0  0  0
   63.6833    9.6949    5.3154 H   0  0  0  0  0  0  0  0  0  0  0  0
   63.6419   12.5004    4.6182 H   0  0  0  0  0  0  0  0  0  0  0  0
   62.1779   11.1388    6.5519 H   0  0  0  0  0  0  0  0  0  0  0  0
   62.3147   13.7498    5.4015 H   0  0  0  0  0  0  0  0  0  0  0  0
   60.5972   12.6567    7.4426 H   0  0  0  0  0  0  0  0  0  0  0  0
   60.8971   15.3364    6.4634 H   0  0  0  0  0  0  0  0  0  0  0  0
   59.0885   14.1508    8.3421 H   0  0  0  0  0  0  0  0  0  0  0  0
   59.2035   16.9133    7.5675 H   0  0  0  0  0  0  0  0  0  0  0  0
   57.7578   15.5466    9.5618 H   0  0  0  0  0  0  0  0  0  0  0  0
   57.9117   18.2118    8.5520 H   0  0  0  0  0  0  0  0  0  0  0  0
   55.6567   17.5134    8.9908 H   0  0  0  0  0  0  0  0  0  0  0  0
   56.7370   17.1996   11.6103 H   0  0  0  0  0  0  0  0  0  0  0  0
   54.0652   16.9018   10.5613 H   0  0  0  0  0  0  0  0  0  0  0  0
   55.2403   16.2371   13.1845 H   0  0  0  0  0  0  0  0  0  0  0  0
   54.6371   15.0824   11.9773 H   0  0  0  0  0  0  0  0  0  0  0  0
   52.3736   16.1312   12.1034 H   0  0  0  0  0  0  0  0  0  0  0  0
   52.9785   17.3154   13.2661 H   0  0  0  0  0  0  0  0  0  0  0  0
   53.5735   15.4272   14.8341 H   0  0  0  0  0  0  0  0  0  0  0  0
   52.8883   14.2852   13.6757 H   0  0  0  0  0  0  0  0  0  0  0  0
   50.6875   15.4885   13.8322 H   0  0  0  0  0  0  0  0  0  0  0  0
   51.3688   16.6077   14.9942 H   0  0  0  0  0  0  0  0  0  0  0  0
   51.8463   14.7352   16.5649 H   0  0  0  0  0  0  0  0  0  0  0  0
   51.2271   13.5874   15.3951 H   0  0  0  0  0  0  0  0  0  0  0  0
   48.9792   14.7145   15.4741 H   0  0  0  0  0  0  0  0  0  0  0  0
   49.5988   15.8086   16.6988 H   0  0  0  0  0  0  0  0  0  0  0  0
   50.1191   13.8511   18.1777 H   0  0  0  0  0  0  0  0  0  0  0  0
   49.5066   12.7478   16.9453 H   0  0  0  0  0  0  0  0  0  0  0  0
   47.2538   13.7826   17.0892 H   0  0  0  0  0  0  0  0  0  0  0  0
   47.8484   14.9548   18.2679 H   0  0  0  0  0  0  0  0  0  0  0  0
   48.4502   13.0776   19.8231 H   0  0  0  0  0  0  0  0  0  0  0  0
   47.8164   11.9163   18.6473 H   0  0  0  0  0  0  0  0  0  0  0  0
   45.5768   12.9509   18.7961 H   0  0  0  0  0  0  0  0  0  0  0  0
   46.1646   14.1488   19.9686 H   0  0  0  0  0  0  0  0  0  0  0  0
   44.1212   13.3045   21.6639 H   0  0  0  0  0  0  0  0  0  0  0  0
   43.9578   11.5992   22.1459 H   0  0  0  0  0  0  0  0  0  0  0  0
   41.4786   13.2205   20.8173 H   0  0  0  0  0  0  0  0  0  0  0  0
   41.3349   11.5283   21.3151 H   0  0  0  0  0  0  0  0  0  0  0  0
   41.6387   10.0698   18.4011 H   0  0  0  0  0  0  0  0  0  0  0  0
   39.9822    9.9724   17.8087 H   0  0  0  0  0  0  0  0  0  0  0  0
   40.0358    7.2472   18.5238 H   0  0  0  0  0  0  0  0  0  0  0  0
   40.3701    6.7590   20.2014 H   0  0  0  0  0  0  0  0  0  0  0  0
   41.9914    5.4129   17.9101 H   0  0  0  0  0  0  0  0  0  0  0  0
   42.3913    5.0658   19.6072 H   0  0  0  0  0  0  0  0  0  0  0  0
   44.9470    5.2588   20.5446 H   0  0  0  0  0  0  0  0  0  0  0  0
   45.0745    6.9338   19.9747 H   0  0  0  0  0  0  0  0  0  0  0  0
   47.0725    7.8296   18.4493 H   0  0  0  0  0  0  0  0  0  0  0  0
   46.8740    6.5468   17.2402 H   0  0  0  0  0  0  0  0  0  0  0  0
   48.8869    4.9608   16.4577 H   0  0  0  0  0  0  0  0  0  0  0  0
   49.3164    4.5014   18.1193 H   0  0  0  0  0  0  0  0  0  0  0  0
   51.9760    4.8711   19.0287 H   0  0  0  0  0  0  0  0  0  0  0  0
   51.8805    6.5465   18.5004 H   0  0  0  0  0  0  0  0  0  0  0  0
   53.8622    6.4726   15.8853 H   0  0  0  0  0  0  0  0  0  0  0  0
   55.3962    9.0834   15.9210 H   0  0  0  0  0  0  0  0  0  0  0  0
   51.9266    8.1850   15.6556 H   0  0  0  0  0  0  0  0  0  0  0  0
   52.6943   11.5852   14.1692 H   0  0  0  0  0  0  0  0  0  0  0  0
   49.0841   10.5906   13.5054 H   0  0  0  0  0  0  0  0  0  0  0  0
   49.8901   14.1697   12.4808 H   0  0  0  0  0  0  0  0  0  0  0  0
   46.3185   14.6552   11.4840 H   0  0  0  0  0  0  0  0  0  0  0  0
   47.6420   12.5525    8.6182 H   0  0  0  0  0  0  0  0  0  0  0  0
   46.7734   10.9413   10.1801 H   0  0  0  0  0  0  0  0  0  0  0  0
   47.0127   10.3818    8.5373 H   0  0  0  0  0  0  0  0  0  0  0  0
   44.5285   11.4599    9.5668 H   0  0  0  0  0  0  0  0  0  0  0  0
   45.1070    9.9719    7.1189 H   0  0  0  0  0  0  0  0  0  0  0  0
   44.6674   11.6938    7.2430 H   0  0  0  0  0  0  0  0  0  0  0  0
   42.6987   11.0313    8.3864 H   0  0  0  0  0  0  0  0  0  0  0  0
   43.1862    9.6869    5.8060 H   0  0  0  0  0  0  0  0  0  0  0  0
   42.7596   11.4056    5.9968 H   0  0  0  0  0  0  0  0  0  0  0  0
   40.7803   10.7150    7.0675 H   0  0  0  0  0  0  0  0  0  0  0  0
   41.3439    9.3542    4.4655 H   0  0  0  0  0  0  0  0  0  0  0  0
   40.8126   11.0440    4.6499 H   0  0  0  0  0  0  0  0  0  0  0  0
   38.8502   10.1482    5.6992 H   0  0  0  0  0  0  0  0  0  0  0  0
   39.3071    8.9458    3.0530 H   0  0  0  0  0  0  0  0  0  0  0  0
   38.9004   10.6631    3.3028 H   0  0  0  0  0  0  0  0  0  0  0  0
   36.8949    9.9867    4.3922 H   0  0  0  0  0  0  0  0  0  0  0  0
   37.2761    8.5821    1.7999 H   0  0  0  0  0  0  0  0  0  0  0  0
   36.8480   10.3000    1.9675 H   0  0  0  0  0  0  0  0  0  0  0  0
   34.7317    9.6022    2.9313 H   0  0  0  0  0  0  0  0  0  0  0  0
   35.3583    8.2156    0.3916 H   0  0  0  0  0  0  0  0  0  0  0  0
   34.8587    9.9137    0.5586 H   0  0  0  0  0  0  0  0  0  0  0  0
   32.7775    9.0760    1.5203 H   0  0  0  0  0  0  0  0  0  0  0  0
   33.3726    7.8664   -1.0671 H   0  0  0  0  0  0  0  0  0  0  0  0
   32.9495    9.5793   -0.8329 H   0  0  0  0  0  0  0  0  0  0  0  0
   30.8008    8.8850    0.0530 H   0  0  0  0  0  0  0  0  0  0  0  0
   31.4851    7.4676   -2.4277 H   0  0  0  0  0  0  0  0  0  0  0  0
   31.0038    9.1798   -2.2821 H   0  0  0  0  0  0  0  0  0  0  0  0
   28.9909    8.4027   -1.2189 H   0  0  0  0  0  0  0  0  0  0  0  0
   29.4609    7.1206   -3.8378 H   0  0  0  0  0  0  0  0  0  0  0  0
   29.0251    8.8361   -3.6092 H   0  0  0  0  0  0  0  0  0  0  0  0
   27.8907    7.5547   -3.1567 H   0  0  0  0  0  0  0  0  0  0  0  0
  1  2  2  0  0  0  0
  1 81  1  0  0  0  0
  1 82  1  0  0  0  0
  2  3  1  0  0  0  0
  2 83  1  0  0  0  0
  3  4  1  0  0  0  0
  3 84  1  0  0  0  0
  3 85  1  0  0  0  0
  4  5  1  0  0  0  0
  4 86  1  0  0  0  0
  5  6  1  0  0  0  0
  5 87  1  0  0  0  0
  6  7  1  0  0  0  0
  6 88  1  0  0  0  0
  7  8  1  0  0  0  0
  7 89  1  0  0  0  0
  8  9  1  0  0  0  0
  8 90  1  0  0  0  0
  9 10  1  0  0  0  0
  9 91  1  0  0  0  0
 10 11  1  0  0  0  0
 10 92  1  0  0  0  0
 11 12  1  0  0  0  0
 11 93  1  0  0  0  0
 12 13  1  0  0  0  0
 12 94  1  0  0  0  0
 13 14  1  0  0  0  0
 13 95  1  0  0  0  0
 14 15  1  0  0  0  0
 14 96  1  0  0  0  0
 15 16  1  0  0  0  0
 15 97  1  0  0  0  0
 16 17  1  0  0  0  0
 16 98  1  0  0  0  0
 17 18  1  0  0  0  0
 17 99  1  0  0  0  0
 18 19  1  0  0  0  0
 18100  1  0  0  0  0
 18101  1  0  0  0  0
 19 20  1  0  0  0  0
 19102  1  0  0  0  0
 19103  1  0  0  0  0
 20 21  1  0  0  0  0
 20104  1  0  0  0  0
 20105  1  0  0  0  0
 21 22  1  0  0  0  0
 21106  1  0  0  0  0
 21107  1  0  0  0  0
 22 23  1  0  0  0  0
 22108  1  0  0  0  0
 22109  1  0  0  0  0
 23 24  1  0  0  0  0
 23110  1  0  0  0  0
 23111  1  0  0  0  0
 24 25  1  0  0  0  0
 24112  1  0  0  0  0
 24113  1  0  0  0  0
 25 26  1  0  0  0  0
 25114  1  0  0  0  0
 25115  1  0  0  0  0
 26 27  1  0  0  0  0
 26116  1  0  0  0  0
 26117  1  0  0  0  0
 27 28  1  0  0  0  0
 27118  1  0  0  0  0
 27119  1  0  0  0  0
 28 29  1  0  0  0  0
 29 30  1  0  0  0  0
 29120  1  0  0  0  0
 29121  1  0  0  0  0
 30 31  1  0  0  0  0
 31 32  1  0  0  0  0
 31122  1  0  0  0  0
 31123  1  0  0  0  0
 32 33  1  0  0  0  0
 33 34  1  0  0  0  0
 33124  1  0  0  0  0
 33125  1  0  0  0  0
 34 35  1  0  0  0  0
 35 36  1  0  0  0  0
 35126  1  0  0  0  0
 35127  1  0  0  0  0
 36 37  1  0  0  0  0
 37 38  1  0  0  0  0
 37128  1  0  0  0  0
 37129  1  0  0  0  0
 38 39  1  0  0  0  0
 39 40  1  0  0  0  0
 39130  1  0  0  0  0
 39131  1  0  0  0  0
 40 41  1  0  0  0  0
 41 42  1  0  0  0  0
 41132  1  0  0  0  0
 41133  1  0  0  0  0
 42 43  1  0  0  0  0
 43 44  1  0  0  0  0
 43134  1  0  0  0  0
 43135  1  0  0  0  0
 44 45  1  0  0  0  0
 45 46  1  0  0  0  0
 45136  1  0  0  0  0
 45137  1  0  0  0  0
 46 47  1  0  0  0  0
 47 48  1  0  0  0  0
 47138  1  0  0  0  0
 48 49  1  0  0  0  0
 49 50  1  0  0  0  0
 49139  1  0  0  0  0
 50 51  1  0  0  0  0
 51 52  1  0  0  0  0
 51140  1  0  0  0  0
 52 53  1  0  0  0  0
 53 54  1  0  0  0  0
 53141  1  0  0  0  0
 54 55  1  0  0  0  0
 55 56  1  0  0  0  0
 55142  1  0  0  0  0
 56 57  1  0  0  0  0
 57 58  1  0  0  0  0
 57143  1  0  0  0  0
 58 59  1  0  0  0  0
 59 60  1  0  0  0  0
 59144  1  0  0  0  0
 60 61  1  0  0  0  0
 61 62  1  0  0  0  0
 61145  1  0  0  0  0
 62 63  1  0  0  0  0
 62146  1  0  0  0  0
 62147  1  0  0  0  0
 63 64  1  0  0  0  0
 63148  1  0  0  0  0
 64 65  1  0  0  0  0
 64149  1  0  0  0  0
 64150  1  0  0  0  0
 65 66  1  0  0  0  0
 65151  1  0  0  0  0
 66 67  1  0  0  0  0
 66152  1  0  0  0  0
 66153  1  0  0  0  0
 67 68  1  0  0  0  0
 67154  1  0  0  0  0
 68 69  1  0  0  0  0
 68155  1  0  0  0  0
 68156  1  0  0  0  0
 69 70  1  0  0  0  0
 69157  1  0  0  0  0
 70 71  1  0  0  0  0
 70158  1  0  0  0  0
 70159  1  0  0  0  0
 71 72  1  0  0  0  0
 71160  1  0  0  0  0
 72 73  1  0  0  0  0
 72161  1  0  0  0  0
 72162  1  0  0  0  0
 73 74  1  0  0  0  0
 73163  1  0  0  0  0
 74 75  1  0  0  0  0
 74164  1  0  0  0  0
 74165  1  0  0  0  0
 75 76  1  0  0  0  0
 75166  1  0  0  0  0
 76 77  1  0  0  0  0
 76167  1  0  0  0  0
 76168  1  0  0  0  0
 77 78  1  0  0  0  0
 77169  1  0  0  0  0
 78 79  1  0  0  0  0
 78170  1  0  0  0  0
 78171  1  0  0  0  0
 79 80  1  0  0  0  0
 79172  1  0  0  0  0
 80173  1  0  0  0  0
 80174  1  0  0  0  0
 80175  1  0  0  0  0
M  END
$$$$
