
 OpenBabel04232216473D

 58 60  0  0  1  0  0  0  0  0999 V2000
    1.0290   -0.6112   -0.8921 C   0  0  0  0  0  0  0  0  0  0  0  0
    2.2732    0.0241   -0.3256 C   0  0  0  0  0  0  0  0  0  0  0  0
    2.5847   -0.4418    1.0139 C   0  0  0  0  0  0  0  0  0  0  0  0
    2.5316    0.4092    2.0403 C   0  0  0  0  0  0  0  0  0  0  0  0
    2.3401    1.8763    1.6877 C   0  0  0  0  0  0  0  0  0  0  0  0
    0.9058    2.4197    1.3533 C   0  0  3  0  0  0  0  0  0  0  0  0
   -0.0380    3.2653    2.2231 C   0  0  0  0  0  0  0  0  0  0  0  0
   -1.5192    3.0491    1.7209 C   0  0  0  0  0  0  0  0  0  0  0  0
   -1.6303    2.0306    0.5644 C   0  0  0  0  0  0  0  0  0  0  0  0
   -0.6849    2.4341   -0.5934 C   0  0  0  0  0  0  0  0  0  0  0  0
    0.6555    2.9624   -0.0699 C   0  0  0  0  0  0  0  0  0  0  0  0
    1.1050    4.1783   -0.4960 C   0  0  0  0  0  0  0  0  0  0  0  0
    2.3181    4.1593   -1.3648 C   0  0  0  0  0  0  0  0  0  0  0  0
    3.5398    4.2638   -0.7660 C   0  0  0  0  0  0  0  0  0  0  0  0
    4.4262    3.0519   -0.7750 C   0  0  0  0  0  0  0  0  0  0  0  0
    5.8563    3.4219   -0.3401 C   0  0  0  0  0  0  0  0  0  0  0  0
    6.9454    3.1037   -1.3630 C   0  0  0  0  0  0  0  0  0  0  0  0
    6.8630    3.8913   -2.6726 C   0  0  0  0  0  0  0  0  0  0  0  0
    8.0328    3.4821   -3.5743 C   0  0  0  0  0  0  0  0  0  0  0  0
    8.0267    4.1966   -4.9229 C   0  0  0  0  0  0  0  0  0  0  0  0
    9.2095    3.7354   -5.7783 C   0  0  0  0  0  0  0  0  0  0  0  0
    9.2256    4.4308   -7.1287 C   0  0  0  0  0  0  0  0  0  0  0  0
    3.4223    2.4123    1.2031 N   0  0  0  0  0  0  0  0  0  0  0  0
    3.8487    2.0241   -0.1037 C   0  0  0  0  0  0  0  0  0  0  0  0
    2.9238    1.0836   -0.8544 C   0  0  0  0  0  0  0  0  0  0  0  0
    1.1093   -1.6961   -0.9571 H   0  0  0  0  0  0  0  0  0  0  0  0
    0.7399   -0.2141   -1.8640 H   0  0  0  0  0  0  0  0  0  0  0  0
    0.1951   -0.4053   -0.2057 H   0  0  0  0  0  0  0  0  0  0  0  0
    2.8650   -1.4762    1.1147 H   0  0  0  0  0  0  0  0  0  0  0  0
    2.8866    0.1350    3.0337 H   0  0  0  0  0  0  0  0  0  0  0  0
    0.4345    1.4312    1.4285 H   0  0  0  0  0  0  0  0  0  0  0  0
    0.1771    4.3389    2.1244 H   0  0  0  0  0  0  0  0  0  0  0  0
    0.0407    3.0509    3.2912 H   0  0  0  0  0  0  0  0  0  0  0  0
   -1.9272    4.0007    1.3516 H   0  0  0  0  0  0  0  0  0  0  0  0
   -2.1591    2.7398    2.5548 H   0  0  0  0  0  0  0  0  0  0  0  0
   -2.6575    1.9265    0.2040 H   0  0  0  0  0  0  0  0  0  0  0  0
   -1.3818    1.0245    0.9436 H   0  0  0  0  0  0  0  0  0  0  0  0
   -1.1885    3.2073   -1.1864 H   0  0  0  0  0  0  0  0  0  0  0  0
   -0.5261    1.5841   -1.2598 H   0  0  0  0  0  0  0  0  0  0  0  0
    1.3241    4.9061    0.2915 H   0  0  0  0  0  0  0  0  0  0  0  0
    2.2181    3.5657   -2.2556 H   0  0  0  0  0  0  0  0  0  0  0  0
    3.6203    4.7864    0.1938 H   0  0  0  0  0  0  0  0  0  0  0  0
    6.1108    2.8414    0.5618 H   0  0  0  0  0  0  0  0  0  0  0  0
    5.9349    4.4715   -0.0334 H   0  0  0  0  0  0  0  0  0  0  0  0
    6.9393    2.0298   -1.5823 H   0  0  0  0  0  0  0  0  0  0  0  0
    7.9170    3.3169   -0.8944 H   0  0  0  0  0  0  0  0  0  0  0  0
    6.9058    4.9679   -2.4682 H   0  0  0  0  0  0  0  0  0  0  0  0
    5.9132    3.6892   -3.1803 H   0  0  0  0  0  0  0  0  0  0  0  0
    7.9955    2.3986   -3.7416 H   0  0  0  0  0  0  0  0  0  0  0  0
    8.9781    3.6932   -3.0588 H   0  0  0  0  0  0  0  0  0  0  0  0
    8.0819    5.2807   -4.7693 H   0  0  0  0  0  0  0  0  0  0  0  0
    7.0876    3.9877   -5.4488 H   0  0  0  0  0  0  0  0  0  0  0  0
    9.1582    2.6509   -5.9328 H   0  0  0  0  0  0  0  0  0  0  0  0
   10.1513    3.9414   -5.2559 H   0  0  0  0  0  0  0  0  0  0  0  0
    8.3110    4.2151   -7.6896 H   0  0  0  0  0  0  0  0  0  0  0  0
   10.0784    4.0871   -7.7225 H   0  0  0  0  0  0  0  0  0  0  0  0
    9.3095    5.5152   -7.0081 H   0  0  0  0  0  0  0  0  0  0  0  0
    2.6504    1.4202   -1.8521 H   0  0  0  0  0  0  0  0  0  0  0  0
  1  2  1  0  0  0  0
  1 26  1  0  0  0  0
  1 27  1  0  0  0  0
  1 28  1  0  0  0  0
  2  3  1  0  0  0  0
  2 25  2  0  0  0  0
  3  4  2  0  0  0  0
  3 29  1  0  0  0  0
  4  5  1  0  0  0  0
  4 30  1  0  0  0  0
  5  6  1  0  0  0  0
  5 23  2  0  0  0  0
  6  7  1  0  0  0  0
  6 11  1  0  0  0  0
  6 31  1  0  0  0  0
  7  8  1  0  0  0  0
  7 32  1  0  0  0  0
  7 33  1  0  0  0  0
  8  9  1  0  0  0  0
  8 34  1  0  0  0  0
  8 35  1  0  0  0  0
  9 10  1  0  0  0  0
  9 36  1  0  0  0  0
  9 37  1  0  0  0  0
 10 11  1  0  0  0  0
 10 38  1  0  0  0  0
 10 39  1  0  0  0  0
 11 12  2  3  0  0  0
 12 13  1  0  0  0  0
 12 40  1  0  0  0  0
 13 14  2  3  0  0  0
 13 41  1  0  0  0  0
 14 15  1  0  0  0  0
 14 42  1  0  0  0  0
 15 16  1  0  0  0  0
 15 24  2  3  0  0  0
 16 17  1  0  0  0  0
 16 43  1  0  0  0  0
 16 44  1  0  0  0  0
 17 18  1  0  0  0  0
 17 45  1  0  0  0  0
 17 46  1  0  0  0  0
 18 19  1  0  0  0  0
 18 47  1  0  0  0  0
 18 48  1  0  0  0  0
 19 20  1  0  0  0  0
 19 49  1  0  0  0  0
 19 50  1  0  0  0  0
 20 21  1  0  0  0  0
 20 51  1  0  0  0  0
 20 52  1  0  0  0  0
 21 22  1  0  0  0  0
 21 53  1  0  0  0  0
 21 54  1  0  0  0  0
 22 55  1  0  0  0  0
 22 56  1  0  0  0  0
 22 57  1  0  0  0  0
 23 24  1  0  0  0  0
 24 25  1  0  0  0  0
 25 58  1  0  0  0  0
M  END
$$$$
