
 OpenBabel04232216513D

 29 29  0  0  1  0  0  0  0  0999 V2000
    1.0408   -0.0616    0.1186 C   0  0  0  0  0  0  0  0  0  0  0  0
    2.5601   -0.0981    0.0258 C   0  0  0  0  0  0  0  0  0  0  0  0
    3.0492   -1.5194   -0.2512 C   0  0  0  0  0  0  0  0  0  0  0  0
    4.5356   -1.5857   -0.3491 C   0  0  3  0  0  3  0  0  0  0  0  0
    5.2795   -2.8094   -0.6102 C   0  0  3  0  0  0  0  0  0  0  0  0
    4.5907   -4.1096   -0.9114 C   0  0  0  0  0  0  0  0  0  0  0  0
    5.6064   -5.2312   -1.1350 C   0  0  0  0  0  0  0  0  0  0  0  0
    4.9154   -6.5602   -1.4332 C   0  0  0  0  0  0  0  0  0  0  0  0
    5.9284   -7.6711   -1.6583 C   0  0  0  0  0  0  0  0  0  0  0  0
    5.2397   -1.6845   -1.6116 C   0  0  0  0  0  0  0  0  0  0  0  0
    0.6928    0.9568    0.3138 H   0  0  0  0  0  0  0  0  0  0  0  0
    0.6836   -0.7047    0.9276 H   0  0  0  0  0  0  0  0  0  0  0  0
    0.5845   -0.4036   -0.8170 H   0  0  0  0  0  0  0  0  0  0  0  0
    2.9875    0.2768    0.9632 H   0  0  0  0  0  0  0  0  0  0  0  0
    2.8869    0.5793   -0.7720 H   0  0  0  0  0  0  0  0  0  0  0  0
    2.5859   -1.8879   -1.1756 H   0  0  0  0  0  0  0  0  0  0  0  0
    2.7179   -2.1791    0.5594 H   0  0  0  0  0  0  0  0  0  0  0  0
    6.1773   -2.9297   -0.0132 H   0  0  0  0  0  0  0  0  0  0  0  0
    3.9612   -4.0115   -1.8051 H   0  0  0  0  0  0  0  0  0  0  0  0
    3.9284   -4.3815   -0.0804 H   0  0  0  0  0  0  0  0  0  0  0  0
    6.2395   -5.3390   -0.2453 H   0  0  0  0  0  0  0  0  0  0  0  0
    6.2711   -4.9618   -1.9648 H   0  0  0  0  0  0  0  0  0  0  0  0
    4.2853   -6.4603   -2.3246 H   0  0  0  0  0  0  0  0  0  0  0  0
    4.2587   -6.8351   -0.5996 H   0  0  0  0  0  0  0  0  0  0  0  0
    6.5835   -7.4372   -2.5038 H   0  0  0  0  0  0  0  0  0  0  0  0
    5.4161   -8.6133   -1.8748 H   0  0  0  0  0  0  0  0  0  0  0  0
    6.5520   -7.8186   -0.7709 H   0  0  0  0  0  0  0  0  0  0  0  0
    4.6387   -1.7872   -2.5034 H   0  0  0  0  0  0  0  0  0  0  0  0
    6.1171   -1.0534   -1.7134 H   0  0  0  0  0  0  0  0  0  0  0  0
  1  2  1  0  0  0  0
  1 11  1  0  0  0  0
  1 12  1  0  0  0  0
  1 13  1  0  0  0  0
  2  3  1  0  0  0  0
  2 14  1  0  0  0  0
  2 15  1  0  0  0  0
  3  4  1  0  0  0  0
  3 16  1  0  0  0  0
  3 17  1  0  0  0  0
  4  5  1  0  0  0  0
  4 10  1  0  0  0  0
  5  6  1  0  0  0  0
  5 10  1  0  0  0  0
  5 18  1  0  0  0  0
  6  7  1  0  0  0  0
  6 19  1  0  0  0  0
  6 20  1  0  0  0  0
  7  8  1  0  0  0  0
  7 21  1  0  0  0  0
  7 22  1  0  0  0  0
  8  9  1  0  0  0  0
  8 23  1  0  0  0  0
  8 24  1  0  0  0  0
  9 25  1  0  0  0  0
  9 26  1  0  0  0  0
  9 27  1  0  0  0  0
 10 28  1  0  0  0  0
 10 29  1  0  0  0  0
M  END
$$$$
