
 OpenBabel04232216423D

 16 16  0  0  0  0  0  0  0  0999 V2000
    1.1879   -0.1935   -0.0084 C   0  0  0  0  0  0  0  0  0  0  0  0
    0.6126    1.0181    0.0063 C   0  0  0  0  0  0  0  0  0  0  0  0
   -0.8216    0.8645    0.0141 C   0  0  0  0  0  0  0  0  0  0  0  0
   -1.1493   -0.4367    0.0021 C   0  0  0  0  0  0  0  0  0  0  0  0
   -2.4035   -0.9879    0.0056 N   0  0  0  0  0  0  0  0  0  0  0  0
   -2.7494   -2.3879   -0.0048 C   0  0  0  0  0  0  0  0  0  0  0  0
    0.1265   -1.2554   -0.0159 C   0  0  0  0  0  0  0  0  0  0  0  0
    2.2489   -0.3890   -0.0140 H   0  0  0  0  0  0  0  0  0  0  0  0
    1.1219    1.9692    0.0133 H   0  0  0  0  0  0  0  0  0  0  0  0
   -1.5097    1.6955    0.0223 H   0  0  0  0  0  0  0  0  0  0  0  0
   -3.1740   -0.3312    0.0881 H   0  0  0  0  0  0  0  0  0  0  0  0
   -1.8740   -3.0405   -0.0708 H   0  0  0  0  0  0  0  0  0  0  0  0
   -3.3952   -2.6014   -0.8618 H   0  0  0  0  0  0  0  0  0  0  0  0
   -3.2958   -2.6415    0.9084 H   0  0  0  0  0  0  0  0  0  0  0  0
    0.1952   -1.8664   -0.9213 H   0  0  0  0  0  0  0  0  0  0  0  0
    0.2067   -1.8904    0.8720 H   0  0  0  0  0  0  0  0  0  0  0  0
  1  2  2  0  0  0  0
  1  7  1  0  0  0  0
  1  8  1  0  0  0  0
  2  3  1  0  0  0  0
  2  9  1  0  0  0  0
  3  4  2  0  0  0  0
  3 10  1  0  0  0  0
  4  5  1  0  0  0  0
  4  7  1  0  0  0  0
  5  6  1  0  0  0  0
  5 11  1  0  0  0  0
  6 12  1  0  0  0  0
  6 13  1  0  0  0  0
  6 14  1  0  0  0  0
  7 15  1  0  0  0  0
  7 16  1  0  0  0  0
M  END
$$$$
