
 OpenBabel04232216483D

 74 75  0  0  1  0  0  0  0  0999 V2000
    6.3061   -2.0073    2.2432 C   0  0  0  0  0  0  0  0  0  0  0  0
    7.2286   -2.7596    1.2842 C   0  0  0  0  0  0  0  0  0  0  0  0
    6.3796   -2.9732    0.1750 C   0  0  0  0  0  0  0  0  0  0  0  0
    5.9003   -2.1034   -0.7438 C   0  0  0  0  0  0  0  0  0  0  0  0
    5.4424   -2.7375   -1.9614 C   0  0  0  0  0  0  0  0  0  0  0  0
    4.6442   -3.9054   -1.6664 N   0  0  0  0  0  0  0  0  0  0  0  0
    5.1992   -5.2616   -1.4529 C   0  0  0  0  0  0  0  0  0  0  0  0
    4.8302   -6.1872   -2.5835 C   0  0  0  0  0  0  0  0  0  0  0  0
    3.3437   -6.1159   -2.9126 C   0  0  0  0  0  0  0  0  0  0  0  0
    2.7872   -4.6801   -2.9374 C   0  0  0  0  0  0  0  0  0  0  0  0
    3.1772   -3.8779   -1.6820 C   0  0  3  0  0  0  0  0  0  0  0  0
    2.5137   -4.4768   -0.3965 C   0  0  0  0  0  0  0  0  0  0  0  0
    2.9102   -3.8043    0.9263 C   0  0  0  0  0  0  0  0  0  0  0  0
    2.3497   -4.4646    2.1979 C   0  0  0  0  0  0  0  0  0  0  0  0
    2.9307   -5.8617    2.4406 C   0  0  0  0  0  0  0  0  0  0  0  0
    2.4087   -6.4915    3.7311 C   0  0  0  0  0  0  0  0  0  0  0  0
    2.9222   -7.9242    3.8764 C   0  0  0  0  0  0  0  0  0  0  0  0
    2.3600   -8.5925    5.1187 C   0  0  0  0  0  0  0  0  0  0  0  0
    6.3318   -2.5555   -2.9144 C   0  0  0  0  0  0  0  0  0  0  0  0
    7.4297   -3.5015   -2.9663 C   0  0  0  0  0  0  0  0  0  0  0  0
    8.6976   -3.3248   -2.4951 C   0  0  0  0  0  0  0  0  0  0  0  0
    9.3768   -2.1194   -1.8857 C   0  0  0  0  0  0  0  0  0  0  0  0
    9.4502   -4.5373   -2.5614 C   0  0  0  0  0  0  0  0  0  0  0  0
   10.5932   -4.6676   -3.2345 C   0  0  0  0  0  0  0  0  0  0  0  0
   11.2388   -5.9478   -3.0884 C   0  0  0  0  0  0  0  0  0  0  0  0
   12.2303   -5.8488   -2.1984 C   0  0  0  0  0  0  0  0  0  0  0  0
   12.1640   -6.2951   -0.8316 C   0  0  0  0  0  0  0  0  0  0  0  0
   11.4132   -5.8603    0.2220 C   0  0  0  0  0  0  0  0  0  0  0  0
   10.0328   -5.2788    0.4834 C   0  0  0  0  0  0  0  0  0  0  0  0
    9.6797   -3.9933    0.7762 C   0  0  0  0  0  0  0  0  0  0  0  0
    8.5224   -3.2253    1.4270 C   0  0  0  0  0  0  0  0  0  0  0  0
    5.3929   -2.6101    2.4090 H   0  0  0  0  0  0  0  0  0  0  0  0
    5.9298   -1.0648    1.8107 H   0  0  0  0  0  0  0  0  0  0  0  0
    6.7143   -1.8033    3.2264 H   0  0  0  0  0  0  0  0  0  0  0  0
    5.9832   -3.9676    0.2275 H   0  0  0  0  0  0  0  0  0  0  0  0
    6.2227   -1.0624   -0.7819 H   0  0  0  0  0  0  0  0  0  0  0  0
    4.8399   -5.6575   -0.5055 H   0  0  0  0  0  0  0  0  0  0  0  0
    6.2998   -5.2537   -1.3359 H   0  0  0  0  0  0  0  0  0  0  0  0
    5.1094   -7.2070   -2.2895 H   0  0  0  0  0  0  0  0  0  0  0  0
    5.4220   -5.9348   -3.4658 H   0  0  0  0  0  0  0  0  0  0  0  0
    2.7887   -6.7062   -2.1755 H   0  0  0  0  0  0  0  0  0  0  0  0
    3.1814   -6.5915   -3.8823 H   0  0  0  0  0  0  0  0  0  0  0  0
    1.6990   -4.7018   -3.0546 H   0  0  0  0  0  0  0  0  0  0  0  0
    3.1962   -4.1673   -3.8183 H   0  0  0  0  0  0  0  0  0  0  0  0
    2.8231   -2.8465   -1.7870 H   0  0  0  0  0  0  0  0  0  0  0  0
    2.7292   -5.5457   -0.3229 H   0  0  0  0  0  0  0  0  0  0  0  0
    1.4245   -4.4117   -0.5072 H   0  0  0  0  0  0  0  0  0  0  0  0
    2.6045   -2.7528    0.9061 H   0  0  0  0  0  0  0  0  0  0  0  0
    3.9917   -3.8249    1.0279 H   0  0  0  0  0  0  0  0  0  0  0  0
    1.2551   -4.5045    2.1625 H   0  0  0  0  0  0  0  0  0  0  0  0
    2.6158   -3.8305    3.0547 H   0  0  0  0  0  0  0  0  0  0  0  0
    4.0253   -5.8009    2.4874 H   0  0  0  0  0  0  0  0  0  0  0  0
    2.6782   -6.5206    1.6032 H   0  0  0  0  0  0  0  0  0  0  0  0
    1.3119   -6.4932    3.7250 H   0  0  0  0  0  0  0  0  0  0  0  0
    2.7269   -5.8939    4.5957 H   0  0  0  0  0  0  0  0  0  0  0  0
    4.0177   -7.9262    3.9248 H   0  0  0  0  0  0  0  0  0  0  0  0
    2.6373   -8.5119    2.9955 H   0  0  0  0  0  0  0  0  0  0  0  0
    2.6586   -8.0523    6.0224 H   0  0  0  0  0  0  0  0  0  0  0  0
    2.7281   -9.6202    5.1964 H   0  0  0  0  0  0  0  0  0  0  0  0
    1.2665   -8.6249    5.0814 H   0  0  0  0  0  0  0  0  0  0  0  0
    6.7871   -1.5559   -3.0064 H   0  0  0  0  0  0  0  0  0  0  0  0
    7.1540   -4.4947   -3.2972 H   0  0  0  0  0  0  0  0  0  0  0  0
    8.6843   -1.3888   -1.4602 H   0  0  0  0  0  0  0  0  0  0  0  0
   10.0153   -1.6212   -2.6183 H   0  0  0  0  0  0  0  0  0  0  0  0
   10.0599   -2.3787   -1.0692 H   0  0  0  0  0  0  0  0  0  0  0  0
    9.0074   -5.4002   -2.0513 H   0  0  0  0  0  0  0  0  0  0  0  0
   11.0926   -3.8066   -3.6653 H   0  0  0  0  0  0  0  0  0  0  0  0
   10.5446   -6.7860   -3.0401 H   0  0  0  0  0  0  0  0  0  0  0  0
   12.9364   -5.0240   -2.3018 H   0  0  0  0  0  0  0  0  0  0  0  0
   13.0389   -6.9208   -0.6310 H   0  0  0  0  0  0  0  0  0  0  0  0
   11.9228   -6.0718    1.1664 H   0  0  0  0  0  0  0  0  0  0  0  0
    9.3469   -6.1092    0.6750 H   0  0  0  0  0  0  0  0  0  0  0  0
   10.5384   -3.3200    0.7041 H   0  0  0  0  0  0  0  0  0  0  0  0
    8.9952   -2.6267    2.2237 H   0  0  0  0  0  0  0  0  0  0  0  0
  1  2  1  0  0  0  0
  1 32  1  0  0  0  0
  1 33  1  0  0  0  0
  1 34  1  0  0  0  0
  2  3  1  0  0  0  0
  2 31  2  3  0  0  0
  3  4  2  3  0  0  0
  3 35  1  0  0  0  0
  4  5  1  0  0  0  0
  4 36  1  0  0  0  0
  5  6  1  0  0  0  0
  5 19  2  3  0  0  0
  6  7  1  0  0  0  0
  6 11  1  0  0  0  0
  7  8  1  0  0  0  0
  7 37  1  0  0  0  0
  7 38  1  0  0  0  0
  8  9  1  0  0  0  0
  8 39  1  0  0  0  0
  8 40  1  0  0  0  0
  9 10  1  0  0  0  0
  9 41  1  0  0  0  0
  9 42  1  0  0  0  0
 10 11  1  0  0  0  0
 10 43  1  0  0  0  0
 10 44  1  0  0  0  0
 11 12  1  0  0  0  0
 11 45  1  0  0  0  0
 12 13  1  0  0  0  0
 12 46  1  0  0  0  0
 12 47  1  0  0  0  0
 13 14  1  0  0  0  0
 13 48  1  0  0  0  0
 13 49  1  0  0  0  0
 14 15  1  0  0  0  0
 14 50  1  0  0  0  0
 14 51  1  0  0  0  0
 15 16  1  0  0  0  0
 15 52  1  0  0  0  0
 15 53  1  0  0  0  0
 16 17  1  0  0  0  0
 16 54  1  0  0  0  0
 16 55  1  0  0  0  0
 17 18  1  0  0  0  0
 17 56  1  0  0  0  0
 17 57  1  0  0  0  0
 18 58  1  0  0  0  0
 18 59  1  0  0  0  0
 18 60  1  0  0  0  0
 19 20  1  0  0  0  0
 19 61  1  0  0  0  0
 20 21  2  3  0  0  0
 20 62  1  0  0  0  0
 21 22  1  0  0  0  0
 21 23  1  0  0  0  0
 22 63  1  0  0  0  0
 22 64  1  0  0  0  0
 22 65  1  0  0  0  0
 23 24  2  3  0  0  0
 23 66  1  0  0  0  0
 24 25  1  0  0  0  0
 24 67  1  0  0  0  0
 25 26  2  3  0  0  0
 25 68  1  0  0  0  0
 26 27  1  0  0  0  0
 26 69  1  0  0  0  0
 27 28  2  3  0  0  0
 27 70  1  0  0  0  0
 28 29  1  0  0  0  0
 28 71  1  0  0  0  0
 29 30  2  3  0  0  0
 29 72  1  0  0  0  0
 30 31  1  0  0  0  0
 30 73  1  0  0  0  0
 31 74  1  0  0  0  0
M  END
$$$$
