
 OpenBabel04232216433D

 67 68  0  0  0  0  0  0  0  0999 V2000
    4.0623    4.4906   -0.3706 C   0  0  0  0  0  0  0  0  0  0  0  0
    4.3872    3.0726   -0.2897 C   0  0  0  0  0  0  0  0  0  0  0  0
    3.9645    2.0457   -1.0738 C   0  0  0  0  0  0  0  0  0  0  0  0
    4.8393    0.8661   -1.1059 C   0  0  0  0  0  0  0  0  0  0  0  0
    5.8314    1.0544   -1.9898 C   0  0  0  0  0  0  0  0  0  0  0  0
    7.2551    0.9705   -1.7064 C   0  0  0  0  0  0  0  0  0  0  0  0
    7.9059    2.1321   -1.9059 C   0  0  0  0  0  0  0  0  0  0  0  0
    9.3261    2.4482   -2.0223 C   0  0  0  0  0  0  0  0  0  0  0  0
   10.2491    1.5723   -1.2136 C   0  0  0  0  0  0  0  0  0  0  0  0
    9.7377    3.4647   -2.8437 C   0  0  0  0  0  0  0  0  0  0  0  0
    8.7818    4.3133   -3.6456 C   0  0  0  0  0  0  0  0  0  0  0  0
   11.1588    3.8298   -2.9061 C   0  0  0  0  0  0  0  0  0  0  0  0
   11.8726    4.6829   -3.6767 C   0  0  0  0  0  0  0  0  0  0  0  0
   11.5248    5.5662   -4.8862 C   0  0  0  0  0  0  0  0  0  0  0  0
   12.2895    5.0942   -6.1356 C   0  0  0  0  0  0  0  0  0  0  0  0
   12.2035    5.9635   -7.3939 C   0  0  0  0  0  0  0  0  0  0  0  0
   12.9014    7.3263   -7.3137 C   0  0  0  0  0  0  0  0  0  0  0  0
   13.0240    7.9489   -8.7040 C   0  0  0  0  0  0  0  0  0  0  0  0
   13.2472    4.9334   -3.2398 C   0  0  0  0  0  0  0  0  0  0  0  0
   14.2695    4.0817   -3.4749 C   0  0  0  0  0  0  0  0  0  0  0  0
   15.5205    4.7889   -3.3134 C   0  0  0  0  0  0  0  0  0  0  0  0
   15.2808    6.0672   -2.9530 C   0  0  0  0  0  0  0  0  0  0  0  0
   13.8448    6.1917   -2.7690 C   0  0  0  0  0  0  0  0  0  0  0  0
   13.1483    7.2528   -2.2222 C   0  0  0  0  0  0  0  0  0  0  0  0
   11.7230    7.1550   -1.8570 C   0  0  0  0  0  0  0  0  0  0  0  0
   10.7108    8.0211   -1.6856 C   0  0  0  0  0  0  0  0  0  0  0  0
    9.3078    7.4926   -1.7389 C   0  0  0  0  0  0  0  0  0  0  0  0
    8.2280    7.6251   -0.9308 C   0  0  0  0  0  0  0  0  0  0  0  0
    6.8213    7.1095   -1.1202 C   0  0  0  0  0  0  0  0  0  0  0  0
    6.2404    5.8627   -1.1230 C   0  0  0  0  0  0  0  0  0  0  0  0
    4.8031    5.5916   -0.6894 C   0  0  0  0  0  0  0  0  0  0  0  0
    3.0014    4.6497   -0.1647 H   0  0  0  0  0  0  0  0  0  0  0  0
    5.0195    2.8029    0.5594 H   0  0  0  0  0  0  0  0  0  0  0  0
    3.3039    2.1767   -1.9287 H   0  0  0  0  0  0  0  0  0  0  0  0
    4.9527    0.2578   -0.2129 H   0  0  0  0  0  0  0  0  0  0  0  0
    5.6265    1.7791   -2.7871 H   0  0  0  0  0  0  0  0  0  0  0  0
    7.7184    0.0219   -1.4873 H   0  0  0  0  0  0  0  0  0  0  0  0
    7.2576    3.0035   -2.0195 H   0  0  0  0  0  0  0  0  0  0  0  0
    9.7216    0.8344   -0.5995 H   0  0  0  0  0  0  0  0  0  0  0  0
   10.8338    2.1734   -0.5126 H   0  0  0  0  0  0  0  0  0  0  0  0
   10.9247    1.0214   -1.8723 H   0  0  0  0  0  0  0  0  0  0  0  0
    7.7182    4.1745   -3.4461 H   0  0  0  0  0  0  0  0  0  0  0  0
    8.9203    4.1650   -4.7152 H   0  0  0  0  0  0  0  0  0  0  0  0
    8.9497    5.3553   -3.4188 H   0  0  0  0  0  0  0  0  0  0  0  0
   11.7316    3.3819   -2.1112 H   0  0  0  0  0  0  0  0  0  0  0  0
   11.7895    6.6113   -4.6775 H   0  0  0  0  0  0  0  0  0  0  0  0
   10.4564    5.5920   -5.0967 H   0  0  0  0  0  0  0  0  0  0  0  0
   11.9112    4.0976   -6.3897 H   0  0  0  0  0  0  0  0  0  0  0  0
   13.3541    4.9724   -5.9105 H   0  0  0  0  0  0  0  0  0  0  0  0
   11.1591    6.0970   -7.6925 H   0  0  0  0  0  0  0  0  0  0  0  0
   12.6903    5.3901   -8.1944 H   0  0  0  0  0  0  0  0  0  0  0  0
   13.9066    7.2235   -6.8879 H   0  0  0  0  0  0  0  0  0  0  0  0
   12.3380    8.0046   -6.6642 H   0  0  0  0  0  0  0  0  0  0  0  0
   13.6742    7.3440   -9.3464 H   0  0  0  0  0  0  0  0  0  0  0  0
   13.4560    8.9532   -8.6461 H   0  0  0  0  0  0  0  0  0  0  0  0
   12.0464    8.0266   -9.1909 H   0  0  0  0  0  0  0  0  0  0  0  0
   14.1768    3.0959   -3.9071 H   0  0  0  0  0  0  0  0  0  0  0  0
   16.4749    4.3420   -3.5550 H   0  0  0  0  0  0  0  0  0  0  0  0
   16.0309    6.8297   -2.8330 H   0  0  0  0  0  0  0  0  0  0  0  0
   13.6817    8.1794   -2.0126 H   0  0  0  0  0  0  0  0  0  0  0  0
   11.4342    6.1236   -1.6874 H   0  0  0  0  0  0  0  0  0  0  0  0
   10.8522    9.1028   -1.8156 H   0  0  0  0  0  0  0  0  0  0  0  0
    9.1768    6.9570   -2.6495 H   0  0  0  0  0  0  0  0  0  0  0  0
    8.3227    8.3014   -0.0838 H   0  0  0  0  0  0  0  0  0  0  0  0
    6.1436    7.9607   -1.2642 H   0  0  0  0  0  0  0  0  0  0  0  0
    6.0547    5.6268   -2.1930 H   0  0  0  0  0  0  0  0  0  0  0  0
    4.2299    6.5092   -0.6145 H   0  0  0  0  0  0  0  0  0  0  0  0
  1  2  1  0  0  0  0
  1 31  2  3  0  0  0
  1 32  1  0  0  0  0
  2  3  2  3  0  0  0
  2 33  1  0  0  0  0
  3  4  1  0  0  0  0
  3 34  1  0  0  0  0
  4  5  2  3  0  0  0
  4 35  1  0  0  0  0
  5  6  1  0  0  0  0
  5 36  1  0  0  0  0
  6  7  2  3  0  0  0
  6 37  1  0  0  0  0
  7  8  1  0  0  0  0
  7 38  1  0  0  0  0
  8  9  1  0  0  0  0
  8 10  2  3  0  0  0
  9 39  1  0  0  0  0
  9 40  1  0  0  0  0
  9 41  1  0  0  0  0
 10 11  1  0  0  0  0
 10 12  1  0  0  0  0
 11 42  1  0  0  0  0
 11 43  1  0  0  0  0
 11 44  1  0  0  0  0
 12 13  2  3  0  0  0
 12 45  1  0  0  0  0
 13 14  1  0  0  0  0
 13 19  1  0  0  0  0
 14 15  1  0  0  0  0
 14 46  1  0  0  0  0
 14 47  1  0  0  0  0
 15 16  1  0  0  0  0
 15 48  1  0  0  0  0
 15 49  1  0  0  0  0
 16 17  1  0  0  0  0
 16 50  1  0  0  0  0
 16 51  1  0  0  0  0
 17 18  1  0  0  0  0
 17 52  1  0  0  0  0
 17 53  1  0  0  0  0
 18 54  1  0  0  0  0
 18 55  1  0  0  0  0
 18 56  1  0  0  0  0
 19 20  2  0  0  0  0
 19 23  1  0  0  0  0
 20 21  1  0  0  0  0
 20 57  1  0  0  0  0
 21 22  2  0  0  0  0
 21 58  1  0  0  0  0
 22 23  1  0  0  0  0
 22 59  1  0  0  0  0
 23 24  2  3  0  0  0
 24 25  1  0  0  0  0
 24 60  1  0  0  0  0
 25 26  2  3  0  0  0
 25 61  1  0  0  0  0
 26 27  1  0  0  0  0
 26 62  1  0  0  0  0
 27 28  2  3  0  0  0
 27 63  1  0  0  0  0
 28 29  1  0  0  0  0
 28 64  1  0  0  0  0
 29 30  2  3  0  0  0
 29 65  1  0  0  0  0
 30 31  1  0  0  0  0
 30 66  1  0  0  0  0
 31 67  1  0  0  0  0
M  END
$$$$
