
 OpenBabel04232216403D

 59 58  0  0  0  0  0  0  0  0999 V2000
    1.5023   -0.6429    0.7573 C   0  0  0  0  0  0  0  0  0  0  0  0
    2.3809    0.0601    0.0259 C   0  0  0  0  0  0  0  0  0  0  0  0
    3.1665   -0.5158   -1.1188 C   0  0  0  0  0  0  0  0  0  0  0  0
    4.6151   -0.3752   -0.9221 N   0  0  0  0  0  0  0  0  0  0  0  0
    5.2890   -0.9067   -2.0509 N   0  0  0  0  0  0  0  0  0  0  0  0
    6.6701   -0.8052   -1.7874 N   0  0  0  0  0  0  0  0  0  0  0  0
    7.4044   -1.3995   -2.8995 C   0  0  0  0  0  0  0  0  0  0  0  0
    8.9012   -1.2693   -2.6524 C   0  0  0  0  0  0  0  0  0  0  0  0
    9.6730   -1.8628   -3.8243 C   0  0  0  0  0  0  0  0  0  0  0  0
   11.1700   -1.7419   -3.5915 C   0  0  0  0  0  0  0  0  0  0  0  0
   11.9418   -2.3356   -4.7615 C   0  0  0  0  0  0  0  0  0  0  0  0
   13.4347   -2.2055   -4.5066 C   0  0  0  0  0  0  0  0  0  0  0  0
   14.1593   -2.7797   -5.6306 N   0  0  0  0  0  0  0  0  0  0  0  0
   15.5957   -2.6592   -5.4040 C   0  0  0  0  0  0  0  0  0  0  0  0
   16.3523   -3.2572   -6.5804 C   0  0  0  0  0  0  0  0  0  0  0  0
   17.8523   -3.1364   -6.3429 C   0  0  0  0  0  0  0  0  0  0  0  0
   18.6266   -3.7296   -7.5093 C   0  0  0  0  0  0  0  0  0  0  0  0
   20.1249   -3.6062   -7.2688 C   0  0  0  0  0  0  0  0  0  0  0  0
   20.8986   -4.2003   -8.4375 C   0  0  0  0  0  0  0  0  0  0  0  0
   22.4000   -4.0825   -8.2081 C   0  0  0  0  0  0  0  0  0  0  0  0
   23.1667   -4.6758   -9.3751 C   0  0  0  0  0  0  0  0  0  0  0  0
    0.9472   -0.1728    1.5620 H   0  0  0  0  0  0  0  0  0  0  0  0
    1.3135   -1.6944    0.5691 H   0  0  0  0  0  0  0  0  0  0  0  0
    2.5179    1.1196    0.2434 H   0  0  0  0  0  0  0  0  0  0  0  0
    2.8710    0.0333   -2.0245 H   0  0  0  0  0  0  0  0  0  0  0  0
    2.9036   -1.5683   -1.2756 H   0  0  0  0  0  0  0  0  0  0  0  0
    4.9259   -0.9108   -0.1131 H   0  0  0  0  0  0  0  0  0  0  0  0
    5.0569   -0.3667   -2.8873 H   0  0  0  0  0  0  0  0  0  0  0  0
    6.8707   -1.2970   -0.9167 H   0  0  0  0  0  0  0  0  0  0  0  0
    7.1526   -0.8757   -3.8310 H   0  0  0  0  0  0  0  0  0  0  0  0
    7.1376   -2.4562   -3.0231 H   0  0  0  0  0  0  0  0  0  0  0  0
    9.1791   -1.7863   -1.7253 H   0  0  0  0  0  0  0  0  0  0  0  0
    9.1730   -0.2131   -2.5298 H   0  0  0  0  0  0  0  0  0  0  0  0
    9.4003   -1.3438   -4.7517 H   0  0  0  0  0  0  0  0  0  0  0  0
    9.4021   -2.9179   -3.9523 H   0  0  0  0  0  0  0  0  0  0  0  0
   11.4448   -2.2608   -2.6650 H   0  0  0  0  0  0  0  0  0  0  0  0
   11.4429   -0.6870   -3.4654 H   0  0  0  0  0  0  0  0  0  0  0  0
   11.6682   -1.8162   -5.6889 H   0  0  0  0  0  0  0  0  0  0  0  0
   11.6713   -3.3916   -4.8890 H   0  0  0  0  0  0  0  0  0  0  0  0
   13.6957   -2.7338   -3.5819 H   0  0  0  0  0  0  0  0  0  0  0  0
   13.6982   -1.1481   -4.3826 H   0  0  0  0  0  0  0  0  0  0  0  0
   13.9024   -2.2942   -6.4899 H   0  0  0  0  0  0  0  0  0  0  0  0
   15.8754   -3.1901   -4.4859 H   0  0  0  0  0  0  0  0  0  0  0  0
   15.8756   -1.6053   -5.2854 H   0  0  0  0  0  0  0  0  0  0  0  0
   16.0821   -2.7382   -7.5087 H   0  0  0  0  0  0  0  0  0  0  0  0
   16.0811   -4.3130   -6.7065 H   0  0  0  0  0  0  0  0  0  0  0  0
   18.1248   -3.6543   -5.4149 H   0  0  0  0  0  0  0  0  0  0  0  0
   18.1244   -2.0812   -6.2154 H   0  0  0  0  0  0  0  0  0  0  0  0
   18.3545   -3.2110   -8.4367 H   0  0  0  0  0  0  0  0  0  0  0  0
   18.3555   -4.7848   -7.6357 H   0  0  0  0  0  0  0  0  0  0  0  0
   20.3955   -4.1242   -6.3405 H   0  0  0  0  0  0  0  0  0  0  0  0
   20.3944   -2.5505   -7.1414 H   0  0  0  0  0  0  0  0  0  0  0  0
   20.6219   -3.6816   -9.3637 H   0  0  0  0  0  0  0  0  0  0  0  0
   20.6231   -5.2547   -8.5632 H   0  0  0  0  0  0  0  0  0  0  0  0
   22.6784   -4.6027   -7.2841 H   0  0  0  0  0  0  0  0  0  0  0  0
   22.6773   -3.0291   -8.0849 H   0  0  0  0  0  0  0  0  0  0  0  0
   22.9224   -5.7355   -9.5012 H   0  0  0  0  0  0  0  0  0  0  0  0
   24.2433   -4.5887   -9.2055 H   0  0  0  0  0  0  0  0  0  0  0  0
   22.9213   -4.1543  -10.3058 H   0  0  0  0  0  0  0  0  0  0  0  0
  1  2  2  0  0  0  0
  1 22  1  0  0  0  0
  1 23  1  0  0  0  0
  2  3  1  0  0  0  0
  2 24  1  0  0  0  0
  3  4  1  0  0  0  0
  3 25  1  0  0  0  0
  3 26  1  0  0  0  0
  4  5  1  0  0  0  0
  4 27  1  0  0  0  0
  5  6  1  0  0  0  0
  5 28  1  0  0  0  0
  6  7  1  0  0  0  0
  6 29  1  0  0  0  0
  7  8  1  0  0  0  0
  7 30  1  0  0  0  0
  7 31  1  0  0  0  0
  8  9  1  0  0  0  0
  8 32  1  0  0  0  0
  8 33  1  0  0  0  0
  9 10  1  0  0  0  0
  9 34  1  0  0  0  0
  9 35  1  0  0  0  0
 10 11  1  0  0  0  0
 10 36  1  0  0  0  0
 10 37  1  0  0  0  0
 11 12  1  0  0  0  0
 11 38  1  0  0  0  0
 11 39  1  0  0  0  0
 12 13  1  0  0  0  0
 12 40  1  0  0  0  0
 12 41  1  0  0  0  0
 13 14  1  0  0  0  0
 13 42  1  0  0  0  0
 14 15  1  0  0  0  0
 14 43  1  0  0  0  0
 14 44  1  0  0  0  0
 15 16  1  0  0  0  0
 15 45  1  0  0  0  0
 15 46  1  0  0  0  0
 16 17  1  0  0  0  0
 16 47  1  0  0  0  0
 16 48  1  0  0  0  0
 17 18  1  0  0  0  0
 17 49  1  0  0  0  0
 17 50  1  0  0  0  0
 18 19  1  0  0  0  0
 18 51  1  0  0  0  0
 18 52  1  0  0  0  0
 19 20  1  0  0  0  0
 19 53  1  0  0  0  0
 19 54  1  0  0  0  0
 20 21  1  0  0  0  0
 20 55  1  0  0  0  0
 20 56  1  0  0  0  0
 21 57  1  0  0  0  0
 21 58  1  0  0  0  0
 21 59  1  0  0  0  0
M  END
$$$$
