
 OpenBabel04232216483D

 42 42  0  0  0  0  0  0  0  0999 V2000
   10.8075    5.4414   -3.7207 C   0  0  0  0  0  0  0  0  0  0  0  0
   10.1631    4.2688   -3.0590 C   0  0  0  0  0  0  0  0  0  0  0  0
    8.9642    4.3442   -2.4778 C   0  0  0  0  0  0  0  0  0  0  0  0
    8.4119    3.1853   -1.8647 C   0  0  0  0  0  0  0  0  0  0  0  0
    9.0996    2.0450   -1.8697 C   0  0  0  0  0  0  0  0  0  0  0  0
    8.6149    0.9017   -1.2587 N   0  0  0  0  0  0  0  0  0  0  0  0
    9.2896   -0.3735   -1.2657 C   0  0  0  0  0  0  0  0  0  0  0  0
    8.9496   -1.1902   -0.0229 C   0  0  0  0  0  0  0  0  0  0  0  0
    9.7023   -2.5239   -0.0243 C   0  0  0  0  0  0  0  0  0  0  0  0
   11.2179   -2.3104   -0.0340 C   0  0  0  0  0  0  0  0  0  0  0  0
   11.9072   -3.5993   -0.0421 N   0  0  0  0  0  0  0  0  0  0  0  0
   13.3066   -3.3516   -0.0602 N   0  0  0  0  0  0  0  0  0  0  0  0
   13.9727   -4.6040   -0.0761 N   0  0  0  0  0  0  0  0  0  0  0  0
   15.4174   -4.3660   -0.0926 C   0  0  0  0  0  0  0  0  0  0  0  0
   16.1615   -5.6989   -0.1074 C   0  0  0  0  0  0  0  0  0  0  0  0
   17.6641   -5.4711   -0.1211 C   0  0  0  0  0  0  0  0  0  0  0  0
   10.3493    1.9162   -2.4699 O   0  0  0  0  0  0  0  0  0  0  0  0
   10.9214    3.1113   -3.1207 O   0  0  0  0  0  0  0  0  0  0  0  0
   10.1808    6.3369   -3.6611 H   0  0  0  0  0  0  0  0  0  0  0  0
   10.9901    5.2308   -4.7797 H   0  0  0  0  0  0  0  0  0  0  0  0
   11.7653    5.6706   -3.2428 H   0  0  0  0  0  0  0  0  0  0  0  0
    8.3956    5.2702   -2.4508 H   0  0  0  0  0  0  0  0  0  0  0  0
    7.4430    3.2677   -1.3893 H   0  0  0  0  0  0  0  0  0  0  0  0
    7.6839    0.9487   -0.8577 H   0  0  0  0  0  0  0  0  0  0  0  0
   10.3639   -0.1839   -1.2909 H   0  0  0  0  0  0  0  0  0  0  0  0
    9.0298   -0.9391   -2.1681 H   0  0  0  0  0  0  0  0  0  0  0  0
    7.8708   -1.3794    0.0198 H   0  0  0  0  0  0  0  0  0  0  0  0
    9.2054   -0.6241    0.8832 H   0  0  0  0  0  0  0  0  0  0  0  0
    9.4004   -3.1099   -0.9021 H   0  0  0  0  0  0  0  0  0  0  0  0
    9.4163   -3.1035    0.8620 H   0  0  0  0  0  0  0  0  0  0  0  0
   11.5004   -1.7253    0.8512 H   0  0  0  0  0  0  0  0  0  0  0  0
   11.5224   -1.7482   -0.9214 H   0  0  0  0  0  0  0  0  0  0  0  0
   11.6272   -4.1160   -0.8773 H   0  0  0  0  0  0  0  0  0  0  0  0
   13.5811   -2.8165    0.7767 H   0  0  0  0  0  0  0  0  0  0  0  0
   13.7132   -5.1383   -0.9057 H   0  0  0  0  0  0  0  0  0  0  0  0
   15.7142   -3.7995    0.7994 H   0  0  0  0  0  0  0  0  0  0  0  0
   15.6973   -3.7780   -0.9756 H   0  0  0  0  0  0  0  0  0  0  0  0
   15.8764   -6.2835   -0.9905 H   0  0  0  0  0  0  0  0  0  0  0  0
   15.8935   -6.2915    0.7761 H   0  0  0  0  0  0  0  0  0  0  0  0
   17.9632   -4.9024   -1.0075 H   0  0  0  0  0  0  0  0  0  0  0  0
   18.1952   -6.4275   -0.1328 H   0  0  0  0  0  0  0  0  0  0  0  0
   17.9820   -4.9141    0.7663 H   0  0  0  0  0  0  0  0  0  0  0  0
  1  2  1  0  0  0  0
  1 19  1  0  0  0  0
  1 20  1  0  0  0  0
  1 21  1  0  0  0  0
  2  3  2  0  0  0  0
  2 18  1  0  0  0  0
  3  4  1  0  0  0  0
  3 22  1  0  0  0  0
  4  5  2  0  0  0  0
  4 23  1  0  0  0  0
  5  6  1  0  0  0  0
  5 17  1  0  0  0  0
  6  7  1  0  0  0  0
  6 24  1  0  0  0  0
  7  8  1  0  0  0  0
  7 25  1  0  0  0  0
  7 26  1  0  0  0  0
  8  9  1  0  0  0  0
  8 27  1  0  0  0  0
  8 28  1  0  0  0  0
  9 10  1  0  0  0  0
  9 29  1  0  0  0  0
  9 30  1  0  0  0  0
 10 11  1  0  0  0  0
 10 31  1  0  0  0  0
 10 32  1  0  0  0  0
 11 12  1  0  0  0  0
 11 33  1  0  0  0  0
 12 13  1  0  0  0  0
 12 34  1  0  0  0  0
 13 14  1  0  0  0  0
 13 35  1  0  0  0  0
 14 15  1  0  0  0  0
 14 36  1  0  0  0  0
 14 37  1  0  0  0  0
 15 16  1  0  0  0  0
 15 38  1  0  0  0  0
 15 39  1  0  0  0  0
 16 40  1  0  0  0  0
 16 41  1  0  0  0  0
 16 42  1  0  0  0  0
 17 18  1  0  0  0  0
M  END
$$$$
