
 OpenBabel04232216393D

232232  0  0  1  0  0  0  0  0999 V2000
    1.2618    0.0104    0.0400 C   0  0  0  0  0  0  0  0  0  0  0  0
    2.5753   -0.0150    0.0244 C   0  0  0  0  0  0  0  0  0  0  0  0
    3.7342   -0.8104   -0.0103 C   0  0  0  0  0  0  0  0  0  0  0  0
    3.7564    0.7522    0.0388 C   0  0  3  0  0  0  0  0  0  0  0  0
    4.1991    1.4699    1.2734 C   0  0  0  0  0  0  0  0  0  0  0  0
    4.1186    2.9765    1.0497 C   0  0  0  0  0  0  0  0  0  0  0  0
    4.5584    3.7477    2.2820 C   0  0  0  0  0  0  0  0  0  0  0  0
    4.4640    5.2433    2.0194 C   0  0  0  0  0  0  0  0  0  0  0  0
    4.9034    6.0165    3.2499 C   0  0  0  0  0  0  0  0  0  0  0  0
    4.8106    7.5097    2.9919 C   0  0  0  0  0  0  0  0  0  0  0  0
    5.2497    8.2744    4.2273 C   0  0  0  0  0  0  0  0  0  0  0  0
    5.1578    9.7671    3.9720 C   0  0  0  0  0  0  0  0  0  0  0  0
    5.5968   10.5297    5.2076 C   0  0  0  0  0  0  0  0  0  0  0  0
    5.5047   12.0218    4.9516 C   0  0  0  0  0  0  0  0  0  0  0  0
    5.9438   12.7843    6.1870 C   0  0  0  0  0  0  0  0  0  0  0  0
    5.8513   14.2761    5.9303 C   0  0  0  0  0  0  0  0  0  0  0  0
    6.2884   15.0386    7.1666 C   0  0  0  0  0  0  0  0  0  0  0  0
    6.1964   16.5303    6.9102 C   0  0  0  0  0  0  0  0  0  0  0  0
    6.6334   17.2920    8.1478 C   0  0  0  0  0  0  0  0  0  0  0  0
    6.5415   18.7849    7.8904 C   0  0  0  0  0  0  0  0  0  0  0  0
    6.9785   19.5470    9.1271 C   0  0  0  0  0  0  0  0  0  0  0  0
    6.8866   21.0391    8.8714 C   0  0  0  0  0  0  0  0  0  0  0  0
    7.3237   21.8019   10.1073 C   0  0  0  0  0  0  0  0  0  0  0  0
    7.2307   23.2942    9.8505 C   0  0  0  0  0  0  0  0  0  0  0  0
    7.6688   24.0557   11.0879 C   0  0  0  0  0  0  0  0  0  0  0  0
    7.5743   25.5517   10.8255 C   0  0  0  0  0  0  0  0  0  0  0  0
    8.0148   26.3126   12.0668 C   0  0  0  0  0  0  0  0  0  0  0  0
    7.9228   27.8038   11.8089 C   0  0  0  0  0  0  0  0  0  0  0  0
    8.3596   28.5658   13.0450 C   0  0  0  0  0  0  0  0  0  0  0  0
    8.2675   30.0580   12.7891 C   0  0  0  0  0  0  0  0  0  0  0  0
    8.7064   30.8205   14.0243 C   0  0  0  0  0  0  0  0  0  0  0  0
    8.6142   32.3122   13.7682 C   0  0  0  0  0  0  0  0  0  0  0  0
    9.0550   33.0746   15.0027 C   0  0  0  0  0  0  0  0  0  0  0  0
    8.9647   34.5666   14.7457 C   0  0  0  0  0  0  0  0  0  0  0  0
    9.4038   35.3290   15.9810 C   0  0  0  0  0  0  0  0  0  0  0  0
    9.3134   36.8209   15.7240 C   0  0  0  0  0  0  0  0  0  0  0  0
    9.7524   37.5833   16.9595 C   0  0  0  0  0  0  0  0  0  0  0  0
    9.6621   39.0753   16.7024 C   0  0  0  0  0  0  0  0  0  0  0  0
   10.1010   39.8377   17.9378 C   0  0  0  0  0  0  0  0  0  0  0  0
   10.0107   41.3297   17.6808 C   0  0  0  0  0  0  0  0  0  0  0  0
   10.4478   42.0921   18.9169 C   0  0  0  0  0  0  0  0  0  0  0  0
   10.3556   43.5841   18.6606 C   0  0  0  0  0  0  0  0  0  0  0  0
   10.7908   44.3465   19.8973 C   0  0  0  0  0  0  0  0  0  0  0  0
   10.6966   45.8384   19.6417 C   0  0  0  0  0  0  0  0  0  0  0  0
   11.1299   46.6008   20.8791 C   0  0  0  0  0  0  0  0  0  0  0  0
   11.0338   48.0928   20.6241 C   0  0  0  0  0  0  0  0  0  0  0  0
   11.4652   48.8552   21.8622 C   0  0  0  0  0  0  0  0  0  0  0  0
   11.3692   50.3471   21.6072 C   0  0  0  0  0  0  0  0  0  0  0  0
   11.8005   51.1095   22.8453 C   0  0  0  0  0  0  0  0  0  0  0  0
   11.7044   52.6015   22.5904 C   0  0  0  0  0  0  0  0  0  0  0  0
   12.1339   53.3639   23.8290 C   0  0  0  0  0  0  0  0  0  0  0  0
   12.0379   54.8558   23.5742 C   0  0  0  0  0  0  0  0  0  0  0  0
   12.4693   55.6182   24.8122 C   0  0  0  0  0  0  0  0  0  0  0  0
   12.3732   57.1102   24.5572 C   0  0  0  0  0  0  0  0  0  0  0  0
   12.8065   57.8726   25.7946 C   0  0  0  0  0  0  0  0  0  0  0  0
   12.7105   59.3646   25.5397 C   0  0  0  0  0  0  0  0  0  0  0  0
   13.1457   60.1270   26.7764 C   0  0  0  0  0  0  0  0  0  0  0  0
   13.0478   61.6189   26.5221 C   0  0  0  0  0  0  0  0  0  0  0  0
   13.4810   62.3813   27.7595 C   0  0  0  0  0  0  0  0  0  0  0  0
   13.3811   63.8733   27.5059 C   0  0  0  0  0  0  0  0  0  0  0  0
   13.8125   64.6356   28.7440 C   0  0  0  0  0  0  0  0  0  0  0  0
   13.7108   66.1276   28.4910 C   0  0  0  0  0  0  0  0  0  0  0  0
   14.1441   66.8900   29.7285 C   0  0  0  0  0  0  0  0  0  0  0  0
   14.0442   68.3820   29.4748 C   0  0  0  0  0  0  0  0  0  0  0  0
   14.4794   69.1444   30.7116 C   0  0  0  0  0  0  0  0  0  0  0  0
   14.3795   70.6364   30.4580 C   0  0  0  0  0  0  0  0  0  0  0  0
   14.8129   71.3990   31.6954 C   0  0  0  0  0  0  0  0  0  0  0  0
   14.7149   72.8911   31.4412 C   0  0  0  0  0  0  0  0  0  0  0  0
   15.1501   73.6539   32.6780 C   0  0  0  0  0  0  0  0  0  0  0  0
   15.0504   75.1463   32.4247 C   0  0  0  0  0  0  0  0  0  0  0  0
   15.4838   75.9096   33.6622 C   0  0  0  0  0  0  0  0  0  0  0  0
   15.3843   77.4027   33.4098 C   0  0  0  0  0  0  0  0  0  0  0  0
   15.8197   78.1671   34.6471 C   0  0  0  0  0  0  0  0  0  0  0  0
   15.7192   79.6618   34.3977 C   0  0  0  0  0  0  0  0  0  0  0  0
   16.1548   80.4292   35.6357 C   0  0  0  0  0  0  0  0  0  0  0  0
   16.0548   81.9266   35.3880 C   0  0  0  0  0  0  0  0  0  0  0  0
   16.4909   82.7055   36.6216 C   0  0  0  0  0  0  0  0  0  0  0  0
   16.3904   84.1982   36.3720 C   0  0  0  0  0  0  0  0  0  0  0  0
    0.6844   -0.9060    0.0129 H   0  0  0  0  0  0  0  0  0  0  0  0
    0.7280    0.9525    0.0802 H   0  0  0  0  0  0  0  0  0  0  0  0
    3.9822   -1.2744   -0.9547 H   0  0  0  0  0  0  0  0  0  0  0  0
    4.0019   -1.3541    0.8839 H   0  0  0  0  0  0  0  0  0  0  0  0
    4.0519    1.2488   -0.8771 H   0  0  0  0  0  0  0  0  0  0  0  0
    5.2333    1.1890    1.5055 H   0  0  0  0  0  0  0  0  0  0  0  0
    3.5898    1.1909    2.1437 H   0  0  0  0  0  0  0  0  0  0  0  0
    3.0927    3.2573    0.7797 H   0  0  0  0  0  0  0  0  0  0  0  0
    4.7551    3.2552    0.2000 H   0  0  0  0  0  0  0  0  0  0  0  0
    5.5905    3.4820    2.5412 H   0  0  0  0  0  0  0  0  0  0  0  0
    3.9274    3.4801    3.1380 H   0  0  0  0  0  0  0  0  0  0  0  0
    3.4334    5.5143    1.7581 H   0  0  0  0  0  0  0  0  0  0  0  0
    5.0957    5.5151    1.1643 H   0  0  0  0  0  0  0  0  0  0  0  0
    5.9344    5.7475    3.5107 H   0  0  0  0  0  0  0  0  0  0  0  0
    4.2711    5.7470    4.1047 H   0  0  0  0  0  0  0  0  0  0  0  0
    3.7804    7.7818    2.7313 H   0  0  0  0  0  0  0  0  0  0  0  0
    5.4441    7.7831    2.1390 H   0  0  0  0  0  0  0  0  0  0  0  0
    6.2800    8.0032    4.4887 H   0  0  0  0  0  0  0  0  0  0  0  0
    4.6162    8.0021    5.0806 H   0  0  0  0  0  0  0  0  0  0  0  0
    4.1276   10.0393    3.7114 H   0  0  0  0  0  0  0  0  0  0  0  0
    5.7915   10.0405    3.1194 H   0  0  0  0  0  0  0  0  0  0  0  0
    6.6272   10.2581    5.4688 H   0  0  0  0  0  0  0  0  0  0  0  0
    4.9633   10.2570    6.0607 H   0  0  0  0  0  0  0  0  0  0  0  0
    4.4745   12.2938    4.6908 H   0  0  0  0  0  0  0  0  0  0  0  0
    6.1384   12.2950    4.0989 H   0  0  0  0  0  0  0  0  0  0  0  0
    6.9740   12.5129    6.4479 H   0  0  0  0  0  0  0  0  0  0  0  0
    5.3101   12.5114    7.0401 H   0  0  0  0  0  0  0  0  0  0  0  0
    4.8214   14.5477    5.6677 H   0  0  0  0  0  0  0  0  0  0  0  0
    6.4862   14.5487    5.0782 H   0  0  0  0  0  0  0  0  0  0  0  0
    7.3183   14.7669    7.4288 H   0  0  0  0  0  0  0  0  0  0  0  0
    5.6535   14.7653    8.0183 H   0  0  0  0  0  0  0  0  0  0  0  0
    5.1662   16.8023    6.6492 H   0  0  0  0  0  0  0  0  0  0  0  0
    6.8300   16.8036    6.0589 H   0  0  0  0  0  0  0  0  0  0  0  0
    7.6650   17.0212    8.4081 H   0  0  0  0  0  0  0  0  0  0  0  0
    6.0009   17.0187    8.9989 H   0  0  0  0  0  0  0  0  0  0  0  0
    5.5107   19.0547    7.6291 H   0  0  0  0  0  0  0  0  0  0  0  0
    7.1750   19.0575    7.0386 H   0  0  0  0  0  0  0  0  0  0  0  0
    8.0084   19.2753    9.3889 H   0  0  0  0  0  0  0  0  0  0  0  0
    6.3438   19.2737    9.9789 H   0  0  0  0  0  0  0  0  0  0  0  0
    5.8566   21.3108    8.6096 H   0  0  0  0  0  0  0  0  0  0  0  0
    7.5219   21.3123    8.0199 H   0  0  0  0  0  0  0  0  0  0  0  0
    8.3539   21.5304   10.3694 H   0  0  0  0  0  0  0  0  0  0  0  0
    6.6889   21.5289   10.9592 H   0  0  0  0  0  0  0  0  0  0  0  0
    6.2026   23.5657    9.5869 H   0  0  0  0  0  0  0  0  0  0  0  0
    7.8679   23.5665    8.9990 H   0  0  0  0  0  0  0  0  0  0  0  0
    8.6974   23.7863   11.3488 H   0  0  0  0  0  0  0  0  0  0  0  0
    7.0335   23.7847   11.9377 H   0  0  0  0  0  0  0  0  0  0  0  0
    6.5458   25.8210   10.5679 H   0  0  0  0  0  0  0  0  0  0  0  0
    8.2093   25.8220    9.9766 H   0  0  0  0  0  0  0  0  0  0  0  0
    9.0441   26.0399   12.3264 H   0  0  0  0  0  0  0  0  0  0  0  0
    7.3797   26.0401   12.9167 H   0  0  0  0  0  0  0  0  0  0  0  0
    6.8928   28.0753   11.5467 H   0  0  0  0  0  0  0  0  0  0  0  0
    8.5578   28.0768   10.9572 H   0  0  0  0  0  0  0  0  0  0  0  0
    9.3898   28.2943   13.3078 H   0  0  0  0  0  0  0  0  0  0  0  0
    7.7248   28.2927   13.8974 H   0  0  0  0  0  0  0  0  0  0  0  0
    7.2371   30.3295   12.5278 H   0  0  0  0  0  0  0  0  0  0  0  0
    8.9013   30.3307   11.9359 H   0  0  0  0  0  0  0  0  0  0  0  0
    9.7366   30.5484   14.2851 H   0  0  0  0  0  0  0  0  0  0  0  0
    8.0728   30.5473   14.8772 H   0  0  0  0  0  0  0  0  0  0  0  0
    7.5836   32.5842   13.5084 H   0  0  0  0  0  0  0  0  0  0  0  0
    9.2467   32.5849   12.9141 H   0  0  0  0  0  0  0  0  0  0  0  0
   10.0851   32.8015   15.2630 H   0  0  0  0  0  0  0  0  0  0  0  0
    8.4216   32.8029   15.8561 H   0  0  0  0  0  0  0  0  0  0  0  0
    7.9349   34.8394   14.4839 H   0  0  0  0  0  0  0  0  0  0  0  0
    9.5993   34.8384   13.8931 H   0  0  0  0  0  0  0  0  0  0  0  0
   10.4335   35.0561   16.2428 H   0  0  0  0  0  0  0  0  0  0  0  0
    8.7692   35.0571   16.8336 H   0  0  0  0  0  0  0  0  0  0  0  0
    8.2836   37.0938   15.4623 H   0  0  0  0  0  0  0  0  0  0  0  0
    9.9479   37.0928   14.8715 H   0  0  0  0  0  0  0  0  0  0  0  0
   10.7821   37.3105   17.2212 H   0  0  0  0  0  0  0  0  0  0  0  0
    9.1178   37.3115   17.8120 H   0  0  0  0  0  0  0  0  0  0  0  0
    8.6323   39.3482   16.4407 H   0  0  0  0  0  0  0  0  0  0  0  0
   10.2966   39.3472   15.8499 H   0  0  0  0  0  0  0  0  0  0  0  0
   11.1308   39.5649   18.1997 H   0  0  0  0  0  0  0  0  0  0  0  0
    9.4665   39.5658   18.7904 H   0  0  0  0  0  0  0  0  0  0  0  0
    8.9812   41.6023   17.4177 H   0  0  0  0  0  0  0  0  0  0  0  0
   10.6463   41.6018   16.8292 H   0  0  0  0  0  0  0  0  0  0  0  0
   11.4778   41.8205   19.1793 H   0  0  0  0  0  0  0  0  0  0  0  0
    9.8130   41.8189   19.7689 H   0  0  0  0  0  0  0  0  0  0  0  0
    9.3259   43.8554   18.3969 H   0  0  0  0  0  0  0  0  0  0  0  0
   10.9914   43.8575   17.8095 H   0  0  0  0  0  0  0  0  0  0  0  0
   11.8209   44.0762   20.1603 H   0  0  0  0  0  0  0  0  0  0  0  0
   10.1558   44.0720   20.7488 H   0  0  0  0  0  0  0  0  0  0  0  0
    9.6667   46.1085   19.3774 H   0  0  0  0  0  0  0  0  0  0  0  0
   11.3326   46.1132   18.7912 H   0  0  0  0  0  0  0  0  0  0  0  0
   12.1602   46.3319   21.1426 H   0  0  0  0  0  0  0  0  0  0  0  0
   10.4947   46.3251   21.7300 H   0  0  0  0  0  0  0  0  0  0  0  0
   10.0037   48.3616   20.3593 H   0  0  0  0  0  0  0  0  0  0  0  0
   11.6701   48.3688   19.7742 H   0  0  0  0  0  0  0  0  0  0  0  0
   12.4953   48.5864   22.1271 H   0  0  0  0  0  0  0  0  0  0  0  0
   10.8289   48.5792   22.7122 H   0  0  0  0  0  0  0  0  0  0  0  0
   10.3391   50.6159   21.3424 H   0  0  0  0  0  0  0  0  0  0  0  0
   12.0054   50.6232   20.7573 H   0  0  0  0  0  0  0  0  0  0  0  0
   12.8306   50.8408   23.1102 H   0  0  0  0  0  0  0  0  0  0  0  0
   11.1642   50.8335   23.6953 H   0  0  0  0  0  0  0  0  0  0  0  0
   10.6747   52.8700   22.3241 H   0  0  0  0  0  0  0  0  0  0  0  0
   12.3418   52.8777   21.7413 H   0  0  0  0  0  0  0  0  0  0  0  0
   13.1637   53.0953   24.0954 H   0  0  0  0  0  0  0  0  0  0  0  0
   11.4966   53.0877   24.6782 H   0  0  0  0  0  0  0  0  0  0  0  0
   11.0078   55.1246   23.3092 H   0  0  0  0  0  0  0  0  0  0  0  0
   12.6742   55.1319   22.7242 H   0  0  0  0  0  0  0  0  0  0  0  0
   13.4993   55.3495   25.0771 H   0  0  0  0  0  0  0  0  0  0  0  0
   11.8330   55.3422   25.6622 H   0  0  0  0  0  0  0  0  0  0  0  0
   11.3429   57.3791   24.2937 H   0  0  0  0  0  0  0  0  0  0  0  0
   13.0084   57.3860   23.7064 H   0  0  0  0  0  0  0  0  0  0  0  0
   13.8369   57.6036   26.0581 H   0  0  0  0  0  0  0  0  0  0  0  0
   12.1714   57.5968   26.6455 H   0  0  0  0  0  0  0  0  0  0  0  0
   11.6798   59.6337   25.2776 H   0  0  0  0  0  0  0  0  0  0  0  0
   13.3445   59.6402   24.6879 H   0  0  0  0  0  0  0  0  0  0  0  0
   14.1768   59.8589   27.0377 H   0  0  0  0  0  0  0  0  0  0  0  0
   12.5125   59.8503   27.6285 H   0  0  0  0  0  0  0  0  0  0  0  0
   12.0169   61.8868   26.2595 H   0  0  0  0  0  0  0  0  0  0  0  0
   13.6819   61.8958   25.6709 H   0  0  0  0  0  0  0  0  0  0  0  0
   14.5124   62.1145   28.0213 H   0  0  0  0  0  0  0  0  0  0  0  0
   12.8477   62.1034   28.6110 H   0  0  0  0  0  0  0  0  0  0  0  0
   12.3501   64.1398   27.2427 H   0  0  0  0  0  0  0  0  0  0  0  0
   14.0155   64.1514   26.6552 H   0  0  0  0  0  0  0  0  0  0  0  0
   14.8441   64.3701   29.0063 H   0  0  0  0  0  0  0  0  0  0  0  0
   13.1791   64.3565   29.5950 H   0  0  0  0  0  0  0  0  0  0  0  0
   12.6789   66.3933   28.2300 H   0  0  0  0  0  0  0  0  0  0  0  0
   14.3432   66.4066   27.6392 H   0  0  0  0  0  0  0  0  0  0  0  0
   15.1754   66.6232   29.9902 H   0  0  0  0  0  0  0  0  0  0  0  0
   13.5108   66.6120   30.5800 H   0  0  0  0  0  0  0  0  0  0  0  0
   13.0125   68.6489   29.2144 H   0  0  0  0  0  0  0  0  0  0  0  0
   14.6764   68.6597   28.6224 H   0  0  0  0  0  0  0  0  0  0  0  0
   15.5110   68.8774   30.9720 H   0  0  0  0  0  0  0  0  0  0  0  0
   13.8472   68.8667   31.5640 H   0  0  0  0  0  0  0  0  0  0  0  0
   13.3482   70.9032   30.1962 H   0  0  0  0  0  0  0  0  0  0  0  0
   15.0128   70.9143   29.6064 H   0  0  0  0  0  0  0  0  0  0  0  0
   15.8437   71.1311   31.9580 H   0  0  0  0  0  0  0  0  0  0  0  0
   14.1786   71.1221   32.5466 H   0  0  0  0  0  0  0  0  0  0  0  0
   13.6837   73.1590   31.1798 H   0  0  0  0  0  0  0  0  0  0  0  0
   15.3480   73.1677   30.5890 H   0  0  0  0  0  0  0  0  0  0  0  0
   16.1817   73.3867   32.9383 H   0  0  0  0  0  0  0  0  0  0  0  0
   14.5179   73.3760   33.5303 H   0  0  0  0  0  0  0  0  0  0  0  0
   14.0190   75.4128   32.1628 H   0  0  0  0  0  0  0  0  0  0  0  0
   15.6836   75.4239   31.5730 H   0  0  0  0  0  0  0  0  0  0  0  0
   16.5150   75.6422   33.9238 H   0  0  0  0  0  0  0  0  0  0  0  0
   14.8504   75.6311   34.5136 H   0  0  0  0  0  0  0  0  0  0  0  0
   14.3525   77.6690   33.1490 H   0  0  0  0  0  0  0  0  0  0  0  0
   16.0163   77.6798   32.5570 H   0  0  0  0  0  0  0  0  0  0  0  0
   16.8515   77.8996   34.9060 H   0  0  0  0  0  0  0  0  0  0  0  0
   15.1882   77.8868   35.4992 H   0  0  0  0  0  0  0  0  0  0  0  0
   14.6869   79.9263   34.1371 H   0  0  0  0  0  0  0  0  0  0  0  0
   16.3499   79.9391   33.5440 H   0  0  0  0  0  0  0  0  0  0  0  0
   17.1864   80.1605   35.8939 H   0  0  0  0  0  0  0  0  0  0  0  0
   15.5231   80.1477   36.4872 H   0  0  0  0  0  0  0  0  0  0  0  0
   15.0219   82.1885   35.1271 H   0  0  0  0  0  0  0  0  0  0  0  0
   16.6836   82.2009   34.5319 H   0  0  0  0  0  0  0  0  0  0  0  0
   17.5237   82.4452   36.8813 H   0  0  0  0  0  0  0  0  0  0  0  0
   15.8614   82.4328   37.4767 H   0  0  0  0  0  0  0  0  0  0  0  0
   17.0307   84.4953   35.5353 H   0  0  0  0  0  0  0  0  0  0  0  0
   16.7044   84.7529   37.2602 H   0  0  0  0  0  0  0  0  0  0  0  0
   15.3605   84.4828   36.1336 H   0  0  0  0  0  0  0  0  0  0  0  0
  1  2  2  0  0  0  0
  1 79  1  0  0  0  0
  1 80  1  0  0  0  0
  2  3  1  0  0  0  0
  2  4  1  0  0  0  0
  3  4  1  0  0  0  0
  3 81  1  0  0  0  0
  3 82  1  0  0  0  0
  4  5  1  0  0  0  0
  4 83  1  0  0  0  0
  5  6  1  0  0  0  0
  5 84  1  0  0  0  0
  5 85  1  0  0  0  0
  6  7  1  0  0  0  0
  6 86  1  0  0  0  0
  6 87  1  0  0  0  0
  7  8  1  0  0  0  0
  7 88  1  0  0  0  0
  7 89  1  0  0  0  0
  8  9  1  0  0  0  0
  8 90  1  0  0  0  0
  8 91  1  0  0  0  0
  9 10  1  0  0  0  0
  9 92  1  0  0  0  0
  9 93  1  0  0  0  0
 10 11  1  0  0  0  0
 10 94  1  0  0  0  0
 10 95  1  0  0  0  0
 11 12  1  0  0  0  0
 11 96  1  0  0  0  0
 11 97  1  0  0  0  0
 12 13  1  0  0  0  0
 12 98  1  0  0  0  0
 12 99  1  0  0  0  0
 13 14  1  0  0  0  0
 13100  1  0  0  0  0
 13101  1  0  0  0  0
 14 15  1  0  0  0  0
 14102  1  0  0  0  0
 14103  1  0  0  0  0
 15 16  1  0  0  0  0
 15104  1  0  0  0  0
 15105  1  0  0  0  0
 16 17  1  0  0  0  0
 16106  1  0  0  0  0
 16107  1  0  0  0  0
 17 18  1  0  0  0  0
 17108  1  0  0  0  0
 17109  1  0  0  0  0
 18 19  1  0  0  0  0
 18110  1  0  0  0  0
 18111  1  0  0  0  0
 19 20  1  0  0  0  0
 19112  1  0  0  0  0
 19113  1  0  0  0  0
 20 21  1  0  0  0  0
 20114  1  0  0  0  0
 20115  1  0  0  0  0
 21 22  1  0  0  0  0
 21116  1  0  0  0  0
 21117  1  0  0  0  0
 22 23  1  0  0  0  0
 22118  1  0  0  0  0
 22119  1  0  0  0  0
 23 24  1  0  0  0  0
 23120  1  0  0  0  0
 23121  1  0  0  0  0
 24 25  1  0  0  0  0
 24122  1  0  0  0  0
 24123  1  0  0  0  0
 25 26  1  0  0  0  0
 25124  1  0  0  0  0
 25125  1  0  0  0  0
 26 27  1  0  0  0  0
 26126  1  0  0  0  0
 26127  1  0  0  0  0
 27 28  1  0  0  0  0
 27128  1  0  0  0  0
 27129  1  0  0  0  0
 28 29  1  0  0  0  0
 28130  1  0  0  0  0
 28131  1  0  0  0  0
 29 30  1  0  0  0  0
 29132  1  0  0  0  0
 29133  1  0  0  0  0
 30 31  1  0  0  0  0
 30134  1  0  0  0  0
 30135  1  0  0  0  0
 31 32  1  0  0  0  0
 31136  1  0  0  0  0
 31137  1  0  0  0  0
 32 33  1  0  0  0  0
 32138  1  0  0  0  0
 32139  1  0  0  0  0
 33 34  1  0  0  0  0
 33140  1  0  0  0  0
 33141  1  0  0  0  0
 34 35  1  0  0  0  0
 34142  1  0  0  0  0
 34143  1  0  0  0  0
 35 36  1  0  0  0  0
 35144  1  0  0  0  0
 35145  1  0  0  0  0
 36 37  1  0  0  0  0
 36146  1  0  0  0  0
 36147  1  0  0  0  0
 37 38  1  0  0  0  0
 37148  1  0  0  0  0
 37149  1  0  0  0  0
 38 39  1  0  0  0  0
 38150  1  0  0  0  0
 38151  1  0  0  0  0
 39 40  1  0  0  0  0
 39152  1  0  0  0  0
 39153  1  0  0  0  0
 40 41  1  0  0  0  0
 40154  1  0  0  0  0
 40155  1  0  0  0  0
 41 42  1  0  0  0  0
 41156  1  0  0  0  0
 41157  1  0  0  0  0
 42 43  1  0  0  0  0
 42158  1  0  0  0  0
 42159  1  0  0  0  0
 43 44  1  0  0  0  0
 43160  1  0  0  0  0
 43161  1  0  0  0  0
 44 45  1  0  0  0  0
 44162  1  0  0  0  0
 44163  1  0  0  0  0
 45 46  1  0  0  0  0
 45164  1  0  0  0  0
 45165  1  0  0  0  0
 46 47  1  0  0  0  0
 46166  1  0  0  0  0
 46167  1  0  0  0  0
 47 48  1  0  0  0  0
 47168  1  0  0  0  0
 47169  1  0  0  0  0
 48 49  1  0  0  0  0
 48170  1  0  0  0  0
 48171  1  0  0  0  0
 49 50  1  0  0  0  0
 49172  1  0  0  0  0
 49173  1  0  0  0  0
 50 51  1  0  0  0  0
 50174  1  0  0  0  0
 50175  1  0  0  0  0
 51 52  1  0  0  0  0
 51176  1  0  0  0  0
 51177  1  0  0  0  0
 52 53  1  0  0  0  0
 52178  1  0  0  0  0
 52179  1  0  0  0  0
 53 54  1  0  0  0  0
 53180  1  0  0  0  0
 53181  1  0  0  0  0
 54 55  1  0  0  0  0
 54182  1  0  0  0  0
 54183  1  0  0  0  0
 55 56  1  0  0  0  0
 55184  1  0  0  0  0
 55185  1  0  0  0  0
 56 57  1  0  0  0  0
 56186  1  0  0  0  0
 56187  1  0  0  0  0
 57 58  1  0  0  0  0
 57188  1  0  0  0  0
 57189  1  0  0  0  0
 58 59  1  0  0  0  0
 58190  1  0  0  0  0
 58191  1  0  0  0  0
 59 60  1  0  0  0  0
 59192  1  0  0  0  0
 59193  1  0  0  0  0
 60 61  1  0  0  0  0
 60194  1  0  0  0  0
 60195  1  0  0  0  0
 61 62  1  0  0  0  0
 61196  1  0  0  0  0
 61197  1  0  0  0  0
 62 63  1  0  0  0  0
 62198  1  0  0  0  0
 62199  1  0  0  0  0
 63 64  1  0  0  0  0
 63200  1  0  0  0  0
 63201  1  0  0  0  0
 64 65  1  0  0  0  0
 64202  1  0  0  0  0
 64203  1  0  0  0  0
 65 66  1  0  0  0  0
 65204  1  0  0  0  0
 65205  1  0  0  0  0
 66 67  1  0  0  0  0
 66206  1  0  0  0  0
 66207  1  0  0  0  0
 67 68  1  0  0  0  0
 67208  1  0  0  0  0
 67209  1  0  0  0  0
 68 69  1  0  0  0  0
 68210  1  0  0  0  0
 68211  1  0  0  0  0
 69 70  1  0  0  0  0
 69212  1  0  0  0  0
 69213  1  0  0  0  0
 70 71  1  0  0  0  0
 70214  1  0  0  0  0
 70215  1  0  0  0  0
 71 72  1  0  0  0  0
 71216  1  0  0  0  0
 71217  1  0  0  0  0
 72 73  1  0  0  0  0
 72218  1  0  0  0  0
 72219  1  0  0  0  0
 73 74  1  0  0  0  0
 73220  1  0  0  0  0
 73221  1  0  0  0  0
 74 75  1  0  0  0  0
 74222  1  0  0  0  0
 74223  1  0  0  0  0
 75 76  1  0  0  0  0
 75224  1  0  0  0  0
 75225  1  0  0  0  0
 76 77  1  0  0  0  0
 76226  1  0  0  0  0
 76227  1  0  0  0  0
 77 78  1  0  0  0  0
 77228  1  0  0  0  0
 77229  1  0  0  0  0
 78230  1  0  0  0  0
 78231  1  0  0  0  0
 78232  1  0  0  0  0
M  END
$$$$
