
 OpenBabel04232216543D

153152  0  0  0  0  0  0  0  0999 V2000
   51.2018    3.9933   -1.2959 C   0  0  0  0  0  0  0  0  0  0  0  0
   50.4396    2.7318   -1.6588 C   0  0  0  0  0  0  0  0  0  0  0  0
   48.9440    3.0084   -1.7675 C   0  0  0  0  0  0  0  0  0  0  0  0
   48.1860    1.7398   -2.1426 C   0  0  0  0  0  0  0  0  0  0  0  0
   46.6947    2.0257   -2.2557 C   0  0  0  0  0  0  0  0  0  0  0  0
   45.9999    0.7922   -2.6223 N   0  0  0  0  0  0  0  0  0  0  0  0
   44.6231    1.0583   -2.5730 N   0  0  0  0  0  0  0  0  0  0  0  0
   43.9345   -0.1473   -2.6476 N   0  0  0  0  0  0  0  0  0  0  0  0
   42.5563    0.1120   -2.8461 N   0  0  0  0  0  0  0  0  0  0  0  0
   42.2684    1.0282   -3.9078 N   0  0  0  0  0  0  0  0  0  0  0  0
   42.7632    0.6256   -5.1693 N   0  0  0  0  0  0  0  0  0  0  0  0
   42.0547   -0.5269   -5.6662 N   0  0  0  0  0  0  0  0  0  0  0  0
   40.6399   -0.3244   -5.8002 N   0  0  0  0  0  0  0  0  0  0  0  0
   40.2857    0.5335   -6.8854 N   0  0  0  0  0  0  0  0  0  0  0  0
   40.8264    0.0532   -8.1070 N   0  0  0  0  0  0  0  0  0  0  0  0
   40.1754   -1.1749   -8.4520 N   0  0  0  0  0  0  0  0  0  0  0  0
   38.7425   -0.9953   -8.4816 N   0  0  0  0  0  0  0  0  0  0  0  0
   38.3936    0.0570   -9.3909 N   0  0  0  0  0  0  0  0  0  0  0  0
   38.8668   -0.2670  -10.7051 N   0  0  0  0  0  0  0  0  0  0  0  0
   38.2717   -1.4925  -11.1578 N   0  0  0  0  0  0  0  0  0  0  0  0
   36.8490   -1.3730  -11.2236 N   0  0  0  0  0  0  0  0  0  0  0  0
   36.4898   -0.4059  -12.2181 N   0  0  0  0  0  0  0  0  0  0  0  0
   37.0454   -0.7985  -13.4910 N   0  0  0  0  0  0  0  0  0  0  0  0
   36.5333   -2.0952  -13.8700 N   0  0  0  0  0  0  0  0  0  0  0  0
   35.0935   -2.0605  -13.9409 N   0  0  0  0  0  0  0  0  0  0  0  0
   34.6465   -1.0763  -14.8923 N   0  0  0  0  0  0  0  0  0  0  0  0
   35.1927   -1.3460  -16.1889 N   0  0  0  0  0  0  0  0  0  0  0  0
   34.7250   -2.6131  -16.6849 N   0  0  0  0  0  0  0  0  0  0  0  0
   33.2866   -2.6228  -16.8375 N   0  0  0  0  0  0  0  0  0  0  0  0
   32.8420   -1.5225  -17.6437 N   0  0  0  0  0  0  0  0  0  0  0  0
   33.3660   -1.6315  -18.9439 N   0  0  0  0  0  0  0  0  0  0  0  0
   32.8404   -0.6386  -19.7927 N   0  0  0  0  0  0  0  0  0  0  0  0
   33.4472   -0.7948  -21.0613 N   0  0  0  0  0  0  0  0  0  0  0  0
   33.0340   -2.0695  -21.5945 N   0  0  0  0  0  0  0  0  0  0  0  0
   33.5848   -2.2962  -22.9145 C   0  0  0  0  0  0  0  0  0  0  0  0
   35.0408   -2.3225  -22.9009 N   0  0  0  0  0  0  0  0  0  0  0  0
   35.5559   -3.4241  -22.1157 C   0  0  0  0  0  0  0  0  0  0  0  0
   37.0070   -3.3467  -22.2065 N   0  0  0  0  0  0  0  0  0  0  0  0
   37.5852   -4.4159  -21.4046 C   0  0  0  0  0  0  0  0  0  0  0  0
   39.0370   -4.4298  -21.5700 N   0  0  0  0  0  0  0  0  0  0  0  0
   39.6994   -3.2998  -20.8851 N   0  0  0  0  0  0  0  0  0  0  0  0
   39.5854   -3.1649  -19.4408 N   0  0  0  0  0  0  0  0  0  0  0  0
   40.0253   -4.2564  -18.6516 N   0  0  0  0  0  0  0  0  0  0  0  0
   41.4361   -4.2700  -18.5489 N   0  0  0  0  0  0  0  0  0  0  0  0
   41.9907   -5.5518  -17.6942 S   0  0  0  0  0  0  0  0  0  0  0  0
   43.6368   -5.3874  -17.7808 N   0  0  0  0  0  0  0  0  0  0  0  0
   44.2400   -5.7613  -19.2858 S   0  0  0  0  0  0  0  0  0  0  0  0
   43.8102   -4.5517  -20.3465 N   0  0  0  0  0  0  0  0  0  0  0  0
   44.2461   -3.0292  -19.8577 S   0  0  0  0  0  0  0  0  0  0  0  0
   45.8912   -3.0295  -19.7491 N   0  0  0  0  0  0  0  0  0  0  0  0
   46.4537   -1.5076  -19.4498 S   0  0  0  0  0  0  0  0  0  0  0  0
   46.1152   -1.2386  -17.8613 N   0  0  0  0  0  0  0  0  0  0  0  0
   46.3879    0.3365  -17.4616 S   0  0  0  0  0  0  0  0  0  0  0  0
   46.2114    0.4136  -15.8173 N   0  0  0  0  0  0  0  0  0  0  0  0
   44.6446    0.6862  -15.3490 S   0  0  0  0  0  0  0  0  0  0  0  0
   43.7517   -0.6520  -15.7259 N   0  0  0  0  0  0  0  0  0  0  0  0
   43.9461   -1.9602  -14.7383 S   0  0  0  0  0  0  0  0  0  0  0  0
   43.7036   -1.5399  -13.1587 N   0  0  0  0  0  0  0  0  0  0  0  0
   42.1519   -1.2955  -12.6672 S   0  0  0  0  0  0  0  0  0  0  0  0
   41.1978   -2.5710  -13.0828 N   0  0  0  0  0  0  0  0  0  0  0  0
   41.5476   -4.0393  -12.4174 S   0  0  0  0  0  0  0  0  0  0  0  0
   41.5956   -3.9231  -10.7800 N   0  0  0  0  0  0  0  0  0  0  0  0
   40.1786   -3.9113   -9.9630 S   0  0  0  0  0  0  0  0  0  0  0  0
   39.0350   -4.8658  -10.6407 N   0  0  0  0  0  0  0  0  0  0  0  0
   38.9445   -6.3858  -10.0089 S   0  0  0  0  0  0  0  0  0  0  0  0
   38.9189   -6.2838   -8.3533 N   0  0  0  0  0  0  0  0  0  0  0  0
   37.4622   -5.8604   -7.6974 S   0  0  0  0  0  0  0  0  0  0  0  0
   36.3246   -6.9940   -8.0990 N   0  0  0  0  0  0  0  0  0  0  0  0
   36.7105   -8.5422   -7.6753 S   0  0  0  0  0  0  0  0  0  0  0  0
   36.5856   -8.6316   -6.0383 N   0  0  0  0  0  0  0  0  0  0  0  0
   37.0985  -10.1103   -5.5060 S   0  0  0  0  0  0  0  0  0  0  0  0
   36.8424  -10.0922   -3.8744 N   0  0  0  0  0  0  0  0  0  0  0  0
   38.0263   -9.2900   -3.0406 S   0  0  0  0  0  0  0  0  0  0  0  0
   37.8176   -7.6771   -3.3724 N   0  0  0  0  0  0  0  0  0  0  0  0
   36.3400   -7.0926   -2.9054 S   0  0  0  0  0  0  0  0  0  0  0  0
   36.3098   -7.1976   -1.2698 N   0  0  0  0  0  0  0  0  0  0  0  0
   35.0489   -6.3236   -0.6732 S   0  0  0  0  0  0  0  0  0  0  0  0
   35.0045   -6.7097    0.9275 N   0  0  0  0  0  0  0  0  0  0  0  0
   36.1661   -5.8651    1.7571 S   0  0  0  0  0  0  0  0  0  0  0  0
   35.8996   -6.1149    3.3587 N   0  0  0  0  0  0  0  0  0  0  0  0
   36.1083   -7.6860    3.8156 S   0  0  0  0  0  0  0  0  0  0  0  0
   52.2724    3.7798   -1.2239 H   0  0  0  0  0  0  0  0  0  0  0  0
   50.8661    4.3885   -0.3317 H   0  0  0  0  0  0  0  0  0  0  0  0
   51.0573    4.7684   -2.0545 H   0  0  0  0  0  0  0  0  0  0  0  0
   50.6212    1.9643   -0.8975 H   0  0  0  0  0  0  0  0  0  0  0  0
   50.8152    2.3410   -2.6114 H   0  0  0  0  0  0  0  0  0  0  0  0
   48.7623    3.7826   -2.5231 H   0  0  0  0  0  0  0  0  0  0  0  0
   48.5671    3.3949   -0.8123 H   0  0  0  0  0  0  0  0  0  0  0  0
   48.3611    0.9683   -1.3815 H   0  0  0  0  0  0  0  0  0  0  0  0
   48.5624    1.3484   -3.0956 H   0  0  0  0  0  0  0  0  0  0  0  0
   46.5185    2.7964   -3.0167 H   0  0  0  0  0  0  0  0  0  0  0  0
   46.3240    2.4085   -1.2949 H   0  0  0  0  0  0  0  0  0  0  0  0
   46.2488    0.0715   -1.9415 H   0  0  0  0  0  0  0  0  0  0  0  0
   44.3606    1.6400   -3.3727 H   0  0  0  0  0  0  0  0  0  0  0  0
   44.0997   -0.7732   -1.8575 H   0  0  0  0  0  0  0  0  0  0  0  0
   42.1256    0.4471   -1.9789 H   0  0  0  0  0  0  0  0  0  0  0  0
   42.4672    2.0120   -3.6986 H   0  0  0  0  0  0  0  0  0  0  0  0
   43.7727    0.4526   -5.2104 H   0  0  0  0  0  0  0  0  0  0  0  0
   42.2115   -1.3273   -5.0428 H   0  0  0  0  0  0  0  0  0  0  0  0
   40.2146   -0.0171   -4.9176 H   0  0  0  0  0  0  0  0  0  0  0  0
   40.5879    1.4962   -6.7092 H   0  0  0  0  0  0  0  0  0  0  0  0
   41.8327   -0.1059   -8.0005 H   0  0  0  0  0  0  0  0  0  0  0  0
   40.3912   -1.8757   -7.7335 H   0  0  0  0  0  0  0  0  0  0  0  0
   38.4314   -0.7332   -7.5392 H   0  0  0  0  0  0  0  0  0  0  0  0
   38.8736    0.9082   -9.0761 H   0  0  0  0  0  0  0  0  0  0  0  0
   39.8811   -0.4169  -10.6237 H   0  0  0  0  0  0  0  0  0  0  0  0
   38.5121   -2.2384  -10.4891 H   0  0  0  0  0  0  0  0  0  0  0  0
   36.5109   -1.0682  -10.3027 H   0  0  0  0  0  0  0  0  0  0  0  0
   36.9073    0.4908  -11.9411 H   0  0  0  0  0  0  0  0  0  0  0  0
   38.0586   -0.8911  -13.3369 H   0  0  0  0  0  0  0  0  0  0  0  0
   36.7908   -2.7394  -13.1088 H   0  0  0  0  0  0  0  0  0  0  0  0
   34.7592   -1.7843  -13.0069 H   0  0  0  0  0  0  0  0  0  0  0  0
   34.9994   -0.1624  -14.5842 H   0  0  0  0  0  0  0  0  0  0  0  0
   36.2109   -1.3955  -16.0717 H   0  0  0  0  0  0  0  0  0  0  0  0
   34.9823   -3.3183  -15.9855 H   0  0  0  0  0  0  0  0  0  0  0  0
   32.8883   -2.4990  -15.8977 H   0  0  0  0  0  0  0  0  0  0  0  0
   33.2218   -0.6770  -17.2064 H   0  0  0  0  0  0  0  0  0  0  0  0
   33.1673   -2.5532  -19.3424 H   0  0  0  0  0  0  0  0  0  0  0  0
   33.0493    0.2838  -19.4059 H   0  0  0  0  0  0  0  0  0  0  0  0
   34.4580   -0.7831  -20.9022 H   0  0  0  0  0  0  0  0  0  0  0  0
   32.0130   -2.0785  -21.6401 H   0  0  0  0  0  0  0  0  0  0  0  0
   33.2445   -1.5154  -23.6041 H   0  0  0  0  0  0  0  0  0  0  0  0
   33.1990   -3.2417  -23.3141 H   0  0  0  0  0  0  0  0  0  0  0  0
   35.3380   -1.4360  -22.5164 H   0  0  0  0  0  0  0  0  0  0  0  0
   35.2061   -4.3777  -22.5263 H   0  0  0  0  0  0  0  0  0  0  0  0
   35.2476   -3.3529  -21.0675 H   0  0  0  0  0  0  0  0  0  0  0  0
   37.2657   -2.4378  -21.8564 H   0  0  0  0  0  0  0  0  0  0  0  0
   37.2296   -5.3842  -21.7788 H   0  0  0  0  0  0  0  0  0  0  0  0
   37.2936   -4.3580  -20.3499 H   0  0  0  0  0  0  0  0  0  0  0  0
   39.1730   -4.3395  -22.5823 H   0  0  0  0  0  0  0  0  0  0  0  0
   39.4808   -2.4118  -21.3556 H   0  0  0  0  0  0  0  0  0  0  0  0
   38.6728   -2.8076  -19.1265 H   0  0  0  0  0  0  0  0  0  0  0  0
   39.6630   -5.1571  -18.9732 H   0  0  0  0  0  0  0  0  0  0  0  0
   41.7663   -3.3777  -18.1795 H   0  0  0  0  0  0  0  0  0  0  0  0
   44.0503   -6.0308  -17.1058 H   0  0  0  0  0  0  0  0  0  0  0  0
   42.7884   -4.5624  -20.4189 H   0  0  0  0  0  0  0  0  0  0  0  0
   46.2710   -3.3805  -20.6267 H   0  0  0  0  0  0  0  0  0  0  0  0
   46.6420   -1.8763  -17.2676 H   0  0  0  0  0  0  0  0  0  0  0  0
   46.7784    1.1998  -15.4880 H   0  0  0  0  0  0  0  0  0  0  0  0
   43.9248   -0.9111  -16.7011 H   0  0  0  0  0  0  0  0  0  0  0  0
   44.2629   -0.7133  -12.9549 H   0  0  0  0  0  0  0  0  0  0  0  0
   41.2148   -2.6614  -14.1001 H   0  0  0  0  0  0  0  0  0  0  0  0
   42.1610   -3.1169  -10.5159 H   0  0  0  0  0  0  0  0  0  0  0  0
   39.1375   -4.8879  -11.6561 H   0  0  0  0  0  0  0  0  0  0  0  0
   39.6402   -5.6277   -8.0608 H   0  0  0  0  0  0  0  0  0  0  0  0
   36.1776   -6.9509   -9.1081 H   0  0  0  0  0  0  0  0  0  0  0  0
   35.6347   -8.4388   -5.7246 H   0  0  0  0  0  0  0  0  0  0  0  0
   36.7880  -11.0398   -3.5138 H   0  0  0  0  0  0  0  0  0  0  0  0
   37.8643   -7.5964   -4.3875 H   0  0  0  0  0  0  0  0  0  0  0  0
   37.2073   -6.8875   -0.9027 H   0  0  0  0  0  0  0  0  0  0  0  0
   35.1868   -7.7099    1.0123 H   0  0  0  0  0  0  0  0  0  0  0  0
   35.0082   -5.7334    3.6762 H   0  0  0  0  0  0  0  0  0  0  0  0
   37.4414   -7.7569    3.6856 H   0  0  0  0  0  0  0  0  0  0  0  0
  1  2  1  0  0  0  0
  1 82  1  0  0  0  0
  1 83  1  0  0  0  0
  1 84  1  0  0  0  0
  2  3  1  0  0  0  0
  2 85  1  0  0  0  0
  2 86  1  0  0  0  0
  3  4  1  0  0  0  0
  3 87  1  0  0  0  0
  3 88  1  0  0  0  0
  4  5  1  0  0  0  0
  4 89  1  0  0  0  0
  4 90  1  0  0  0  0
  5  6  1  0  0  0  0
  5 91  1  0  0  0  0
  5 92  1  0  0  0  0
  6  7  1  0  0  0  0
  6 93  1  0  0  0  0
  7  8  1  0  0  0  0
  7 94  1  0  0  0  0
  8  9  1  0  0  0  0
  8 95  1  0  0  0  0
  9 10  1  0  0  0  0
  9 96  1  0  0  0  0
 10 11  1  0  0  0  0
 10 97  1  0  0  0  0
 11 12  1  0  0  0  0
 11 98  1  0  0  0  0
 12 13  1  0  0  0  0
 12 99  1  0  0  0  0
 13 14  1  0  0  0  0
 13100  1  0  0  0  0
 14 15  1  0  0  0  0
 14101  1  0  0  0  0
 15 16  1  0  0  0  0
 15102  1  0  0  0  0
 16 17  1  0  0  0  0
 16103  1  0  0  0  0
 17 18  1  0  0  0  0
 17104  1  0  0  0  0
 18 19  1  0  0  0  0
 18105  1  0  0  0  0
 19 20  1  0  0  0  0
 19106  1  0  0  0  0
 20 21  1  0  0  0  0
 20107  1  0  0  0  0
 21 22  1  0  0  0  0
 21108  1  0  0  0  0
 22 23  1  0  0  0  0
 22109  1  0  0  0  0
 23 24  1  0  0  0  0
 23110  1  0  0  0  0
 24 25  1  0  0  0  0
 24111  1  0  0  0  0
 25 26  1  0  0  0  0
 25112  1  0  0  0  0
 26 27  1  0  0  0  0
 26113  1  0  0  0  0
 27 28  1  0  0  0  0
 27114  1  0  0  0  0
 28 29  1  0  0  0  0
 28115  1  0  0  0  0
 29 30  1  0  0  0  0
 29116  1  0  0  0  0
 30 31  1  0  0  0  0
 30117  1  0  0  0  0
 31 32  1  0  0  0  0
 31118  1  0  0  0  0
 32 33  1  0  0  0  0
 32119  1  0  0  0  0
 33 34  1  0  0  0  0
 33120  1  0  0  0  0
 34 35  1  0  0  0  0
 34121  1  0  0  0  0
 35 36  1  0  0  0  0
 35122  1  0  0  0  0
 35123  1  0  0  0  0
 36 37  1  0  0  0  0
 36124  1  0  0  0  0
 37 38  1  0  0  0  0
 37125  1  0  0  0  0
 37126  1  0  0  0  0
 38 39  1  0  0  0  0
 38127  1  0  0  0  0
 39 40  1  0  0  0  0
 39128  1  0  0  0  0
 39129  1  0  0  0  0
 40 41  1  0  0  0  0
 40130  1  0  0  0  0
 41 42  1  0  0  0  0
 41131  1  0  0  0  0
 42 43  1  0  0  0  0
 42132  1  0  0  0  0
 43 44  1  0  0  0  0
 43133  1  0  0  0  0
 44 45  1  0  0  0  0
 44134  1  0  0  0  0
 45 46  1  0  0  0  0
 46 47  1  0  0  0  0
 46135  1  0  0  0  0
 47 48  1  0  0  0  0
 48 49  1  0  0  0  0
 48136  1  0  0  0  0
 49 50  1  0  0  0  0
 50 51  1  0  0  0  0
 50137  1  0  0  0  0
 51 52  1  0  0  0  0
 52 53  1  0  0  0  0
 52138  1  0  0  0  0
 53 54  1  0  0  0  0
 54 55  1  0  0  0  0
 54139  1  0  0  0  0
 55 56  1  0  0  0  0
 56 57  1  0  0  0  0
 56140  1  0  0  0  0
 57 58  1  0  0  0  0
 58 59  1  0  0  0  0
 58141  1  0  0  0  0
 59 60  1  0  0  0  0
 60 61  1  0  0  0  0
 60142  1  0  0  0  0
 61 62  1  0  0  0  0
 62 63  1  0  0  0  0
 62143  1  0  0  0  0
 63 64  1  0  0  0  0
 64 65  1  0  0  0  0
 64144  1  0  0  0  0
 65 66  1  0  0  0  0
 66 67  1  0  0  0  0
 66145  1  0  0  0  0
 67 68  1  0  0  0  0
 68 69  1  0  0  0  0
 68146  1  0  0  0  0
 69 70  1  0  0  0  0
 70 71  1  0  0  0  0
 70147  1  0  0  0  0
 71 72  1  0  0  0  0
 72 73  1  0  0  0  0
 72148  1  0  0  0  0
 73 74  1  0  0  0  0
 74 75  1  0  0  0  0
 74149  1  0  0  0  0
 75 76  1  0  0  0  0
 76 77  1  0  0  0  0
 76150  1  0  0  0  0
 77 78  1  0  0  0  0
 78 79  1  0  0  0  0
 78151  1  0  0  0  0
 79 80  1  0  0  0  0
 80 81  1  0  0  0  0
 80152  1  0  0  0  0
 81153  1  0  0  0  0
M  END
$$$$
