
 OpenBabel04232216563D

177176  0  0  0  0  0  0  0  0999 V2000
   11.3360    3.8364   12.6777 C   0  0  0  0  0  0  0  0  0  0  0  0
   12.7861    3.7939   12.7778 N   0  0  0  0  0  0  0  0  0  0  0  0
   13.1761    2.6911   13.6527 C   0  0  0  0  0  0  0  0  0  0  0  0
   14.6922    2.6276   13.7696 C   0  0  0  0  0  0  0  0  0  0  0  0
   15.0804    1.5239   14.6433 N   0  0  0  0  0  0  0  0  0  0  0  0
   16.5374    1.4749   14.7485 C   0  0  0  0  0  0  0  0  0  0  0  0
   16.9536    0.3331   15.6552 C   0  0  0  0  0  0  0  0  0  0  0  0
   18.4660    0.2763   15.7714 C   0  0  0  0  0  0  0  0  0  0  0  0
   18.8816   -0.8643   16.6769 C   0  0  0  0  0  0  0  0  0  0  0  0
   20.3899   -0.9186   16.7934 C   0  0  0  0  0  0  0  0  0  0  0  0
   20.8037   -2.0576   17.7002 C   0  0  0  0  0  0  0  0  0  0  0  0
   22.3122   -2.1132   17.8153 C   0  0  0  0  0  0  0  0  0  0  0  0
   22.7280   -3.2542   18.7212 C   0  0  0  0  0  0  0  0  0  0  0  0
   24.2413   -3.3136   18.8369 C   0  0  0  0  0  0  0  0  0  0  0  0
   24.6636   -4.4581   19.7453 C   0  0  0  0  0  0  0  0  0  0  0  0
   26.1237   -4.5075   19.8406 N   0  0  0  0  0  0  0  0  0  0  0  0
   26.4615   -5.5379   20.7029 N   0  0  0  0  0  0  0  0  0  0  0  0
   27.8815   -5.6059   20.8054 N   0  0  0  0  0  0  0  0  0  0  0  0
   28.2641   -6.6736   21.6537 N   0  0  0  0  0  0  0  0  0  0  0  0
   27.8021   -7.9257   21.1358 N   0  0  0  0  0  0  0  0  0  0  0  0
   28.3548   -8.1285   19.8321 N   0  0  0  0  0  0  0  0  0  0  0  0
   29.7851   -8.1451   19.9161 N   0  0  0  0  0  0  0  0  0  0  0  0
   30.1993   -9.2340   20.7841 N   0  0  0  0  0  0  0  0  0  0  0  0
   29.7049  -10.4843   20.2887 N   0  0  0  0  0  0  0  0  0  0  0  0
   30.2441  -10.7009   18.9776 N   0  0  0  0  0  0  0  0  0  0  0  0
   31.6744  -10.7004   19.0536 N   0  0  0  0  0  0  0  0  0  0  0  0
   32.0899  -11.7516   19.9309 N   0  0  0  0  0  0  0  0  0  0  0  0
   31.6147  -13.0107   19.4481 N   0  0  0  0  0  0  0  0  0  0  0  0
   32.1338  -13.2583   18.1310 N   0  0  0  0  0  0  0  0  0  0  0  0
   33.5654  -13.2643   18.1762 N   0  0  0  0  0  0  0  0  0  0  0  0
   34.0072  -14.2927   19.0660 N   0  0  0  0  0  0  0  0  0  0  0  0
   33.5372  -15.5605   18.6051 N   0  0  0  0  0  0  0  0  0  0  0  0
   34.0220  -15.8135   17.2822 N   0  0  0  0  0  0  0  0  0  0  0  0
   35.4490  -15.8126   17.3064 N   0  0  0  0  0  0  0  0  0  0  0  0
   35.9136  -16.8427   18.2046 N   0  0  0  0  0  0  0  0  0  0  0  0
   35.4341  -18.1272   17.7715 N   0  0  0  0  0  0  0  0  0  0  0  0
   35.8947  -18.3607   16.4617 N   0  0  0  0  0  0  0  0  0  0  0  0
   37.3283  -18.3495   16.4603 N   0  0  0  0  0  0  0  0  0  0  0  0
   37.8266  -19.3840   17.3436 N   0  0  0  0  0  0  0  0  0  0  0  0
   37.3316  -20.6660   16.9520 N   0  0  0  0  0  0  0  0  0  0  0  0
   37.8075  -20.9568   15.6334 N   0  0  0  0  0  0  0  0  0  0  0  0
   39.2391  -20.9402   15.6141 N   0  0  0  0  0  0  0  0  0  0  0  0
   39.7299  -21.9109   16.5313 N   0  0  0  0  0  0  0  0  0  0  0  0
   39.2493  -23.1800   16.1427 N   0  0  0  0  0  0  0  0  0  0  0  0
   39.6862  -23.4804   14.8036 N   0  0  0  0  0  0  0  0  0  0  0  0
   41.1195  -23.4626   14.7681 N   0  0  0  0  0  0  0  0  0  0  0  0
   41.6520  -24.4418   15.6792 N   0  0  0  0  0  0  0  0  0  0  0  0
   41.1596  -25.7373   15.3197 N   0  0  0  0  0  0  0  0  0  0  0  0
   41.6041  -26.0598   13.9796 N   0  0  0  0  0  0  0  0  0  0  0  0
   43.0424  -26.0304   13.9074 N   0  0  0  0  0  0  0  0  0  0  0  0
   43.5769  -26.9812   14.8360 N   0  0  0  0  0  0  0  0  0  0  0  0
   43.1005  -28.2896   14.4789 N   0  0  0  0  0  0  0  0  0  0  0  0
   43.5012  -28.6106   13.1409 N   0  0  0  0  0  0  0  0  0  0  0  0
   44.9321  -28.5759   13.0483 N   0  0  0  0  0  0  0  0  0  0  0  0
   45.4854  -29.5248   13.9671 N   0  0  0  0  0  0  0  0  0  0  0  0
   44.9943  -30.8307   13.6562 N   0  0  0  0  0  0  0  0  0  0  0  0
   45.3756  -31.1663   12.3158 N   0  0  0  0  0  0  0  0  0  0  0  0
   46.8021  -31.1324   12.2023 N   0  0  0  0  0  0  0  0  0  0  0  0
   47.3742  -32.0374   13.1299 N   0  0  0  0  0  0  0  0  0  0  0  0
   46.8963  -33.3608   12.8323 N   0  0  0  0  0  0  0  0  0  0  0  0
   47.2712  -33.7223   11.4903 N   0  0  0  0  0  0  0  0  0  0  0  0
   48.6769  -33.6640   11.3576 N   0  0  0  0  0  0  0  0  0  0  0  0
   49.2846  -34.6134   12.2527 N   0  0  0  0  0  0  0  0  0  0  0  0
   48.7953  -35.9308   12.0014 N   0  0  0  0  0  0  0  0  0  0  0  0
   49.1393  -36.2905   10.6606 N   0  0  0  0  0  0  0  0  0  0  0  0
   50.5698  -36.2617   10.5004 N   0  0  0  0  0  0  0  0  0  0  0  0
   51.1740  -37.1388   11.4270 N   0  0  0  0  0  0  0  0  0  0  0  0
   50.7119  -38.4599   11.1766 N   0  0  0  0  0  0  0  0  0  0  0  0
   51.0276  -38.8607    9.8390 N   0  0  0  0  0  0  0  0  0  0  0  0
   52.4388  -38.8017    9.6571 N   0  0  0  0  0  0  0  0  0  0  0  0
   53.0728  -39.6902   10.5835 N   0  0  0  0  0  0  0  0  0  0  0  0
   52.5869  -41.0138   10.3741 N   0  0  0  0  0  0  0  0  0  0  0  0
   52.9149  -41.4273    9.0251 N   0  0  0  0  0  0  0  0  0  0  0  0
   54.3349  -41.3684    8.8074 N   0  0  0  0  0  0  0  0  0  0  0  0
   55.0020  -42.2554    9.7187 N   0  0  0  0  0  0  0  0  0  0  0  0
   54.5289  -43.5836    9.5272 N   0  0  0  0  0  0  0  0  0  0  0  0
   54.7995  -43.9839    8.1914 N   0  0  0  0  0  0  0  0  0  0  0  0
   56.2023  -43.9240    7.9410 N   0  0  0  0  0  0  0  0  0  0  0  0
   56.8995  -44.7805    8.8422 N   0  0  0  0  0  0  0  0  0  0  0  0
   56.4445  -46.1276    8.6746 N   0  0  0  0  0  0  0  0  0  0  0  0
   56.6874  -46.5812    7.3202 N   0  0  0  0  0  0  0  0  0  0  0  0
   11.0294    4.6583   12.0241 H   0  0  0  0  0  0  0  0  0  0  0  0
   10.8802    3.9923   13.6597 H   0  0  0  0  0  0  0  0  0  0  0  0
   10.9496    2.9054   12.2519 H   0  0  0  0  0  0  0  0  0  0  0  0
   13.1222    4.6744   13.1677 H   0  0  0  0  0  0  0  0  0  0  0  0
   12.8093    1.7430   13.2432 H   0  0  0  0  0  0  0  0  0  0  0  0
   12.7426    2.8283   14.6493 H   0  0  0  0  0  0  0  0  0  0  0  0
   15.0608    3.5735   14.1805 H   0  0  0  0  0  0  0  0  0  0  0  0
   15.1268    2.4860   12.7747 H   0  0  0  0  0  0  0  0  0  0  0  0
   14.7450    0.6385   14.2612 H   0  0  0  0  0  0  0  0  0  0  0  0
   16.9171    2.4155   15.1611 H   0  0  0  0  0  0  0  0  0  0  0  0
   16.9819    1.3268   13.7585 H   0  0  0  0  0  0  0  0  0  0  0  0
   16.5872   -0.6160   15.2505 H   0  0  0  0  0  0  0  0  0  0  0  0
   16.5198    0.4719   16.6509 H   0  0  0  0  0  0  0  0  0  0  0  0
   18.8406    1.2213   16.1784 H   0  0  0  0  0  0  0  0  0  0  0  0
   18.9072    0.1346   14.7792 H   0  0  0  0  0  0  0  0  0  0  0  0
   18.5107   -1.8105   16.2699 H   0  0  0  0  0  0  0  0  0  0  0  0
   18.4417   -0.7243   17.6696 H   0  0  0  0  0  0  0  0  0  0  0  0
   20.7616    0.0278   17.1994 H   0  0  0  0  0  0  0  0  0  0  0  0
   20.8303   -1.0603   15.8012 H   0  0  0  0  0  0  0  0  0  0  0  0
   20.4308   -3.0039   17.2950 H   0  0  0  0  0  0  0  0  0  0  0  0
   20.3644   -1.9151   18.6929 H   0  0  0  0  0  0  0  0  0  0  0  0
   22.6842   -1.1671   18.2215 H   0  0  0  0  0  0  0  0  0  0  0  0
   22.7508   -2.2539   16.8221 H   0  0  0  0  0  0  0  0  0  0  0  0
   22.3518   -4.1986   18.3145 H   0  0  0  0  0  0  0  0  0  0  0  0
   22.2876   -3.1113   19.7134 H   0  0  0  0  0  0  0  0  0  0  0  0
   24.6078   -2.3636   19.2398 H   0  0  0  0  0  0  0  0  0  0  0  0
   24.6727   -3.4515   17.8398 H   0  0  0  0  0  0  0  0  0  0  0  0
   24.2767   -5.3958   19.3288 H   0  0  0  0  0  0  0  0  0  0  0  0
   24.2120   -4.3079   20.7338 H   0  0  0  0  0  0  0  0  0  0  0  0
   26.4633   -3.6356   20.2377 H   0  0  0  0  0  0  0  0  0  0  0  0
   26.1617   -6.4325   20.3087 H   0  0  0  0  0  0  0  0  0  0  0  0
   28.2342   -4.7377   21.1792 H   0  0  0  0  0  0  0  0  0  0  0  0
   27.8777   -6.5095   22.5865 H   0  0  0  0  0  0  0  0  0  0  0  0
   26.7833   -7.8892   21.0568 H   0  0  0  0  0  0  0  0  0  0  0  0
   28.0564   -7.3554   19.2220 H   0  0  0  0  0  0  0  0  0  0  0  0
   30.1182   -7.2496   20.2994 H   0  0  0  0  0  0  0  0  0  0  0  0
   29.8086   -9.0701   21.7251 H   0  0  0  0  0  0  0  0  0  0  0  0
   28.6796  -10.4506   20.2436 H   0  0  0  0  0  0  0  0  0  0  0  0
   29.9527   -9.9476   18.3519 H   0  0  0  0  0  0  0  0  0  0  0  0
   32.0162   -9.8045   19.4174 H   0  0  0  0  0  0  0  0  0  0  0  0
   31.7295  -11.5997   20.8837 H   0  0  0  0  0  0  0  0  0  0  0  0
   30.5873  -13.0277   19.4165 H   0  0  0  0  0  0  0  0  0  0  0  0
   31.8227  -12.5188   17.4948 H   0  0  0  0  0  0  0  0  0  0  0  0
   33.9135  -12.3798   18.5334 H   0  0  0  0  0  0  0  0  0  0  0  0
   33.6427  -14.1031   20.0125 H   0  0  0  0  0  0  0  0  0  0  0  0
   32.5204  -15.5757   18.5715 H   0  0  0  0  0  0  0  0  0  0  0  0
   33.6888  -15.0714   16.6587 H   0  0  0  0  0  0  0  0  0  0  0  0
   35.7941  -14.9239   17.6509 H   0  0  0  0  0  0  0  0  0  0  0  0
   35.5441  -16.6223   19.1451 H   0  0  0  0  0  0  0  0  0  0  0  0
   34.4168  -18.1183   17.7526 H   0  0  0  0  0  0  0  0  0  0  0  0
   35.5596  -17.6329   15.8239 H   0  0  0  0  0  0  0  0  0  0  0  0
   37.6669  -17.4328   16.7713 H   0  0  0  0  0  0  0  0  0  0  0  0
   37.4807  -19.2030   18.2854 H   0  0  0  0  0  0  0  0  0  0  0  0
   36.3016  -20.6322   16.9741 H   0  0  0  0  0  0  0  0  0  0  0  0
   37.4742  -20.2404   14.9916 H   0  0  0  0  0  0  0  0  0  0  0  0
   39.5593  -20.0162   15.9186 H   0  0  0  0  0  0  0  0  0  0  0  0
   39.3814  -21.6642   17.4674 H   0  0  0  0  0  0  0  0  0  0  0  0
   38.2366  -23.1908   16.1236 H   0  0  0  0  0  0  0  0  0  0  0  0
   39.3065  -22.7508   14.1817 H   0  0  0  0  0  0  0  0  0  0  0  0
   41.4424  -22.5223   15.0328 H   0  0  0  0  0  0  0  0  0  0  0  0
   41.3196  -24.2418   16.6196 H   0  0  0  0  0  0  0  0  0  0  0  0
   40.1334  -25.7337   15.3710 H   0  0  0  0  0  0  0  0  0  0  0  0
   41.2090  -25.3514   13.3377 H   0  0  0  0  0  0  0  0  0  0  0  0
   43.3841  -25.1097   14.1791 H   0  0  0  0  0  0  0  0  0  0  0  0
   43.2522  -26.7413   15.7811 H   0  0  0  0  0  0  0  0  0  0  0  0
   42.0690  -28.2776   14.5524 H   0  0  0  0  0  0  0  0  0  0  0  0
   43.1275  -27.9251   12.4880 H   0  0  0  0  0  0  0  0  0  0  0  0
   45.2626  -27.6475   13.2991 H   0  0  0  0  0  0  0  0  0  0  0  0
   45.1927  -29.2506   14.9193 H   0  0  0  0  0  0  0  0  0  0  0  0
   43.9717  -30.8406   13.7325 H   0  0  0  0  0  0  0  0  0  0  0  0
   44.9976  -30.4858   11.6623 H   0  0  0  0  0  0  0  0  0  0  0  0
   47.1357  -30.1964   12.4258 H   0  0  0  0  0  0  0  0  0  0  0  0
   47.1085  -31.7717   14.0778 H   0  0  0  0  0  0  0  0  0  0  0  0
   45.8756  -33.3733   12.9148 H   0  0  0  0  0  0  0  0  0  0  0  0
   46.8813  -33.0505   10.8290 H   0  0  0  0  0  0  0  0  0  0  0  0
   49.0351  -32.7398   11.5637 H   0  0  0  0  0  0  0  0  0  0  0  0
   49.0182  -34.3585   13.2001 H   0  0  0  0  0  0  0  0  0  0  0  0
   47.7736  -35.9163   12.1092 H   0  0  0  0  0  0  0  0  0  0  0  0
   48.6952  -35.6157   10.0183 H   0  0  0  0  0  0  0  0  0  0  0  0
   50.9086  -35.3185   10.7009 H   0  0  0  0  0  0  0  0  0  0  0  0
   50.9257  -36.8835   12.3727 H   0  0  0  0  0  0  0  0  0  0  0  0
   49.7057  -38.4813   11.2739 H   0  0  0  0  0  0  0  0  0  0  0  0
   50.5987  -38.1977    9.2002 H   0  0  0  0  0  0  0  0  0  0  0  0
   52.7410  -37.8333    9.8309 H   0  0  0  0  0  0  0  0  0  0  0  0
   52.8449  -39.3889   11.5428 H   0  0  0  0  0  0  0  0  0  0  0  0
   51.5692  -41.0373   10.5119 H   0  0  0  0  0  0  0  0  0  0  0  0
   52.4548  -40.7827    8.3654 H   0  0  0  0  0  0  0  0  0  0  0  0
   54.6737  -40.4242    8.9748 H   0  0  0  0  0  0  0  0  0  0  0  0
   54.7775  -41.9723   10.6656 H   0  0  0  0  0  0  0  0  0  0  0  0
   53.5267  -43.6105    9.6696 H   0  0  0  0  0  0  0  0  0  0  0  0
   54.3253  -43.3467    7.5499 H   0  0  0  0  0  0  0  0  0  0  0  0
   56.5263  -42.9676    8.0873 H   0  0  0  0  0  0  0  0  0  0  0  0
   56.6804  -44.4769    9.7945 H   0  0  0  0  0  0  0  0  0  0  0  0
   55.4341  -46.1241    8.8396 H   0  0  0  0  0  0  0  0  0  0  0  0
   57.6796  -46.4476    7.1543 H   0  0  0  0  0  0  0  0  0  0  0  0
   56.2097  -45.8880    6.7208 H   0  0  0  0  0  0  0  0  0  0  0  0
  1  2  1  0  0  0  0
  1 82  1  0  0  0  0
  1 83  1  0  0  0  0
  1 84  1  0  0  0  0
  2  3  1  0  0  0  0
  2 85  1  0  0  0  0
  3  4  1  0  0  0  0
  3 86  1  0  0  0  0
  3 87  1  0  0  0  0
  4  5  1  0  0  0  0
  4 88  1  0  0  0  0
  4 89  1  0  0  0  0
  5  6  1  0  0  0  0
  5 90  1  0  0  0  0
  6  7  1  0  0  0  0
  6 91  1  0  0  0  0
  6 92  1  0  0  0  0
  7  8  1  0  0  0  0
  7 93  1  0  0  0  0
  7 94  1  0  0  0  0
  8  9  1  0  0  0  0
  8 95  1  0  0  0  0
  8 96  1  0  0  0  0
  9 10  1  0  0  0  0
  9 97  1  0  0  0  0
  9 98  1  0  0  0  0
 10 11  1  0  0  0  0
 10 99  1  0  0  0  0
 10100  1  0  0  0  0
 11 12  1  0  0  0  0
 11101  1  0  0  0  0
 11102  1  0  0  0  0
 12 13  1  0  0  0  0
 12103  1  0  0  0  0
 12104  1  0  0  0  0
 13 14  1  0  0  0  0
 13105  1  0  0  0  0
 13106  1  0  0  0  0
 14 15  1  0  0  0  0
 14107  1  0  0  0  0
 14108  1  0  0  0  0
 15 16  1  0  0  0  0
 15109  1  0  0  0  0
 15110  1  0  0  0  0
 16 17  1  0  0  0  0
 16111  1  0  0  0  0
 17 18  1  0  0  0  0
 17112  1  0  0  0  0
 18 19  1  0  0  0  0
 18113  1  0  0  0  0
 19 20  1  0  0  0  0
 19114  1  0  0  0  0
 20 21  1  0  0  0  0
 20115  1  0  0  0  0
 21 22  1  0  0  0  0
 21116  1  0  0  0  0
 22 23  1  0  0  0  0
 22117  1  0  0  0  0
 23 24  1  0  0  0  0
 23118  1  0  0  0  0
 24 25  1  0  0  0  0
 24119  1  0  0  0  0
 25 26  1  0  0  0  0
 25120  1  0  0  0  0
 26 27  1  0  0  0  0
 26121  1  0  0  0  0
 27 28  1  0  0  0  0
 27122  1  0  0  0  0
 28 29  1  0  0  0  0
 28123  1  0  0  0  0
 29 30  1  0  0  0  0
 29124  1  0  0  0  0
 30 31  1  0  0  0  0
 30125  1  0  0  0  0
 31 32  1  0  0  0  0
 31126  1  0  0  0  0
 32 33  1  0  0  0  0
 32127  1  0  0  0  0
 33 34  1  0  0  0  0
 33128  1  0  0  0  0
 34 35  1  0  0  0  0
 34129  1  0  0  0  0
 35 36  1  0  0  0  0
 35130  1  0  0  0  0
 36 37  1  0  0  0  0
 36131  1  0  0  0  0
 37 38  1  0  0  0  0
 37132  1  0  0  0  0
 38 39  1  0  0  0  0
 38133  1  0  0  0  0
 39 40  1  0  0  0  0
 39134  1  0  0  0  0
 40 41  1  0  0  0  0
 40135  1  0  0  0  0
 41 42  1  0  0  0  0
 41136  1  0  0  0  0
 42 43  1  0  0  0  0
 42137  1  0  0  0  0
 43 44  1  0  0  0  0
 43138  1  0  0  0  0
 44 45  1  0  0  0  0
 44139  1  0  0  0  0
 45 46  1  0  0  0  0
 45140  1  0  0  0  0
 46 47  1  0  0  0  0
 46141  1  0  0  0  0
 47 48  1  0  0  0  0
 47142  1  0  0  0  0
 48 49  1  0  0  0  0
 48143  1  0  0  0  0
 49 50  1  0  0  0  0
 49144  1  0  0  0  0
 50 51  1  0  0  0  0
 50145  1  0  0  0  0
 51 52  1  0  0  0  0
 51146  1  0  0  0  0
 52 53  1  0  0  0  0
 52147  1  0  0  0  0
 53 54  1  0  0  0  0
 53148  1  0  0  0  0
 54 55  1  0  0  0  0
 54149  1  0  0  0  0
 55 56  1  0  0  0  0
 55150  1  0  0  0  0
 56 57  1  0  0  0  0
 56151  1  0  0  0  0
 57 58  1  0  0  0  0
 57152  1  0  0  0  0
 58 59  1  0  0  0  0
 58153  1  0  0  0  0
 59 60  1  0  0  0  0
 59154  1  0  0  0  0
 60 61  1  0  0  0  0
 60155  1  0  0  0  0
 61 62  1  0  0  0  0
 61156  1  0  0  0  0
 62 63  1  0  0  0  0
 62157  1  0  0  0  0
 63 64  1  0  0  0  0
 63158  1  0  0  0  0
 64 65  1  0  0  0  0
 64159  1  0  0  0  0
 65 66  1  0  0  0  0
 65160  1  0  0  0  0
 66 67  1  0  0  0  0
 66161  1  0  0  0  0
 67 68  1  0  0  0  0
 67162  1  0  0  0  0
 68 69  1  0  0  0  0
 68163  1  0  0  0  0
 69 70  1  0  0  0  0
 69164  1  0  0  0  0
 70 71  1  0  0  0  0
 70165  1  0  0  0  0
 71 72  1  0  0  0  0
 71166  1  0  0  0  0
 72 73  1  0  0  0  0
 72167  1  0  0  0  0
 73 74  1  0  0  0  0
 73168  1  0  0  0  0
 74 75  1  0  0  0  0
 74169  1  0  0  0  0
 75 76  1  0  0  0  0
 75170  1  0  0  0  0
 76 77  1  0  0  0  0
 76171  1  0  0  0  0
 77 78  1  0  0  0  0
 77172  1  0  0  0  0
 78 79  1  0  0  0  0
 78173  1  0  0  0  0
 79 80  1  0  0  0  0
 79174  1  0  0  0  0
 80 81  1  0  0  0  0
 80175  1  0  0  0  0
 81176  1  0  0  0  0
 81177  1  0  0  0  0
M  END
$$$$
