
 OpenBabel04232216563D

188187  0  0  0  0  0  0  0  0999 V2000
    1.6924   10.8854  -23.9348 C   0  0  0  0  0  0  0  0  0  0  0  0
    3.1384   10.8407  -23.8417 N   0  0  0  0  0  0  0  0  0  0  0  0
    3.5383   10.9423  -22.4471 C   0  0  0  0  0  0  0  0  0  0  0  0
    5.0486   10.9066  -22.3686 C   0  0  0  0  0  0  0  0  0  0  0  0
    5.4590   11.0273  -20.9160 C   0  0  0  0  0  0  0  0  0  0  0  0
    6.9601   10.9975  -20.8312 C   0  0  0  0  0  0  0  0  0  0  0  0
    7.3693   11.1160  -19.3945 C   0  0  0  0  0  0  0  0  0  0  0  0
    8.7721   11.0986  -19.4180 O   0  0  0  0  0  0  0  0  0  0  0  0
    9.1280   11.0404  -18.0385 O   0  0  0  0  0  0  0  0  0  0  0  0
   10.5402   10.9950  -17.9479 O   0  0  0  0  0  0  0  0  0  0  0  0
   10.9616   11.5082  -16.6898 O   0  0  0  0  0  0  0  0  0  0  0  0
   12.3478   11.2339  -16.5768 O   0  0  0  0  0  0  0  0  0  0  0  0
   12.7247   11.0311  -15.2204 O   0  0  0  0  0  0  0  0  0  0  0  0
   14.1044   11.3668  -15.1397 O   0  0  0  0  0  0  0  0  0  0  0  0
   14.4966   11.6490  -13.8034 O   0  0  0  0  0  0  0  0  0  0  0  0
   15.8479   11.2138  -13.6750 O   0  0  0  0  0  0  0  0  0  0  0  0
   16.2424   11.1648  -12.3095 O   0  0  0  0  0  0  0  0  0  0  0  0
   17.6005   11.5988  -12.2410 O   0  0  0  0  0  0  0  0  0  0  0  0
   17.9736   11.8594  -10.8916 O   0  0  0  0  0  0  0  0  0  0  0  0
   19.2923   11.3522  -10.6898 O   0  0  0  0  0  0  0  0  0  0  0  0
   19.6316   11.4049   -9.3000 O   0  0  0  0  0  0  0  0  0  0  0  0
   21.0392   11.4764   -9.3176 C   0  0  0  0  0  0  0  0  0  0  0  0
   21.5230   11.4834   -7.9861 O   0  0  0  0  0  0  0  0  0  0  0  0
   22.9347   11.5298   -8.0008 C   0  0  0  0  0  0  0  0  0  0  0  0
   23.3597   12.6671   -8.7290 O   0  0  0  0  0  0  0  0  0  0  0  0
   24.7667   12.6802   -8.8550 C   0  0  0  0  0  0  0  0  0  0  0  0
   25.1575   13.7719   -9.6646 O   0  0  0  0  0  0  0  0  0  0  0  0
   26.5736   13.8128   -9.7107 C   0  0  0  0  0  0  0  0  0  0  0  0
   27.0093   14.9927  -10.5503 C   0  0  0  0  0  0  0  0  0  0  0  0
   28.5250   15.0210  -10.5693 C   0  0  0  0  0  0  0  0  0  0  0  0
   29.0297   16.1854  -11.3893 C   0  0  0  0  0  0  0  0  0  0  0  0
   30.5471   16.1887  -11.3732 C   0  0  0  0  0  0  0  0  0  0  0  0
   31.0620   17.3594  -12.1733 C   0  0  0  0  0  0  0  0  0  0  0  0
   32.5766   17.3615  -12.1647 C   0  0  0  0  0  0  0  0  0  0  0  0
   33.0835   18.5332  -12.9784 C   0  0  0  0  0  0  0  0  0  0  0  0
   34.6020   18.5367  -12.9796 C   0  0  0  0  0  0  0  0  0  0  0  0
   35.1146   19.7054  -13.7973 C   0  0  0  0  0  0  0  0  0  0  0  0
   36.6304   19.7095  -13.7961 C   0  0  0  0  0  0  0  0  0  0  0  0
   37.1399   20.8769  -14.6204 C   0  0  0  0  0  0  0  0  0  0  0  0
   38.6567   20.8815  -14.6237 C   0  0  0  0  0  0  0  0  0  0  0  0
   39.1632   22.0533  -15.4430 C   0  0  0  0  0  0  0  0  0  0  0  0
   40.6791   22.0575  -15.4455 C   0  0  0  0  0  0  0  0  0  0  0  0
   41.1879   23.2273  -16.2647 C   0  0  0  0  0  0  0  0  0  0  0  0
   42.7044   23.2312  -16.2674 C   0  0  0  0  0  0  0  0  0  0  0  0
   43.2130   24.4009  -17.0869 C   0  0  0  0  0  0  0  0  0  0  0  0
   44.7299   24.4060  -17.0909 C   0  0  0  0  0  0  0  0  0  0  0  0
   45.2410   25.5760  -17.9111 C   0  0  0  0  0  0  0  0  0  0  0  0
   46.7587   25.5812  -17.9139 C   0  0  0  0  0  0  0  0  0  0  0  0
   47.2733   26.7510  -18.7328 C   0  0  0  0  0  0  0  0  0  0  0  0
   48.7921   26.7552  -18.7373 C   0  0  0  0  0  0  0  0  0  0  0  0
   49.3083   27.9265  -19.5561 C   0  0  0  0  0  0  0  0  0  0  0  0
   50.8387   27.9428  -19.5630 C   0  0  0  0  0  0  0  0  0  0  0  0
   51.3449   29.1069  -20.3830 C   0  0  0  0  0  0  0  0  0  0  0  0
   52.8667   29.1179  -20.3881 C   0  0  0  0  0  0  0  0  0  0  0  0
   53.3942   30.2848  -21.2122 C   0  0  0  0  0  0  0  0  0  0  0  0
   54.9196   30.2894  -21.2151 C   0  0  0  0  0  0  0  0  0  0  0  0
   55.4566   31.4564  -22.0347 C   0  0  0  0  0  0  0  0  0  0  0  0
   56.9861   31.4718  -22.0422 C   0  0  0  0  0  0  0  0  0  0  0  0
   57.4977   32.6511  -22.8670 C   0  0  0  0  0  0  0  0  0  0  0  0
   59.0249   32.7259  -22.9072 C   0  0  0  0  0  0  0  0  0  0  0  0
   59.4632   34.1933  -23.8924 S   0  0  0  0  0  0  0  0  0  0  0  0
   61.2824   34.0948  -23.8652 C   0  0  0  0  0  0  0  0  0  0  0  0
   61.9190   35.4510  -24.9177 S   0  0  0  0  0  0  0  0  0  0  0  0
   63.7160   35.2003  -24.7854 C   0  0  0  0  0  0  0  0  0  0  0  0
   64.2476   33.6152  -25.5005 S   0  0  0  0  0  0  0  0  0  0  0  0
   66.0555   33.7642  -25.3314 C   0  0  0  0  0  0  0  0  0  0  0  0
   66.5806   33.9022  -23.5939 S   0  0  0  0  0  0  0  0  0  0  0  0
   68.3885   33.8768  -23.7841 C   0  0  0  0  0  0  0  0  0  0  0  0
   69.0205   35.2781  -24.7573 S   0  0  0  0  0  0  0  0  0  0  0  0
   70.8167   34.9894  -24.6377 C   0  0  0  0  0  0  0  0  0  0  0  0
   71.3177   33.3883  -25.3459 S   0  0  0  0  0  0  0  0  0  0  0  0
   73.1216   33.5011  -25.1713 C   0  0  0  0  0  0  0  0  0  0  0  0
   73.6530   33.5394  -23.4314 S   0  0  0  0  0  0  0  0  0  0  0  0
   75.4581   33.6698  -23.6357 C   0  0  0  0  0  0  0  0  0  0  0  0
   75.9412   35.2222  -24.4429 S   0  0  0  0  0  0  0  0  0  0  0  0
   77.7607   35.0419  -24.4913 C   0  0  0  0  0  0  0  0  0  0  0  0
   78.4106   36.4266  -25.5017 S   0  0  0  0  0  0  0  0  0  0  0  0
   80.2036   36.1474  -25.4212 C   0  0  0  0  0  0  0  0  0  0  0  0
   80.7203   34.6536  -26.3135 S   0  0  0  0  0  0  0  0  0  0  0  0
   82.5237   34.7850  -26.1450 C   0  0  0  0  0  0  0  0  0  0  0  0
   83.2299   36.1215  -27.1386 S   0  0  0  0  0  0  0  0  0  0  0  0
    1.3842   10.7959  -24.9840 H   0  0  0  0  0  0  0  0  0  0  0  0
    1.2941   11.8248  -23.5401 H   0  0  0  0  0  0  0  0  0  0  0  0
    1.2427   10.0475  -23.3868 H   0  0  0  0  0  0  0  0  0  0  0  0
    3.5416   11.6157  -24.3671 H   0  0  0  0  0  0  0  0  0  0  0  0
    3.1280   10.1060  -21.8670 H   0  0  0  0  0  0  0  0  0  0  0  0
    3.1721   11.8764  -22.0029 H   0  0  0  0  0  0  0  0  0  0  0  0
    5.4901   11.7349  -22.9418 H   0  0  0  0  0  0  0  0  0  0  0  0
    5.4420    9.9746  -22.7900 H   0  0  0  0  0  0  0  0  0  0  0  0
    5.0357   10.2013  -20.3293 H   0  0  0  0  0  0  0  0  0  0  0  0
    5.0783   11.9615  -20.4843 H   0  0  0  0  0  0  0  0  0  0  0  0
    7.4087   11.8149  -21.4103 H   0  0  0  0  0  0  0  0  0  0  0  0
    7.3641   10.0686  -21.2535 H   0  0  0  0  0  0  0  0  0  0  0  0
    6.9888   10.2762  -18.7995 H   0  0  0  0  0  0  0  0  0  0  0  0
    7.0256   12.0563  -18.9493 H   0  0  0  0  0  0  0  0  0  0  0  0
   21.3359   12.3854   -9.8582 H   0  0  0  0  0  0  0  0  0  0  0  0
   21.4303   10.5978   -9.8481 H   0  0  0  0  0  0  0  0  0  0  0  0
   23.3235   10.6022   -8.4509 H   0  0  0  0  0  0  0  0  0  0  0  0
   23.2753   11.6079   -6.9733 H   0  0  0  0  0  0  0  0  0  0  0  0
   25.0955   11.7488   -9.3316 H   0  0  0  0  0  0  0  0  0  0  0  0
   25.2068   12.7737   -7.8562 H   0  0  0  0  0  0  0  0  0  0  0  0
   26.9565   12.8808  -10.1457 H   0  0  0  0  0  0  0  0  0  0  0  0
   26.9688   13.9162   -8.6943 H   0  0  0  0  0  0  0  0  0  0  0  0
   26.6042   15.9237  -10.1347 H   0  0  0  0  0  0  0  0  0  0  0  0
   26.6000   14.8999  -11.5650 H   0  0  0  0  0  0  0  0  0  0  0  0
   28.9132   14.0806  -10.9811 H   0  0  0  0  0  0  0  0  0  0  0  0
   28.9066   15.1005   -9.5443 H   0  0  0  0  0  0  0  0  0  0  0  0
   28.6442   17.1291  -10.9792 H   0  0  0  0  0  0  0  0  0  0  0  0
   28.6619   16.1084  -12.4202 H   0  0  0  0  0  0  0  0  0  0  0  0
   30.9276   15.2476  -11.7951 H   0  0  0  0  0  0  0  0  0  0  0  0
   30.9069   16.2503  -10.3346 H   0  0  0  0  0  0  0  0  0  0  0  0
   30.6844   18.3010  -11.7505 H   0  0  0  0  0  0  0  0  0  0  0  0
   30.6958   17.2962  -13.2055 H   0  0  0  0  0  0  0  0  0  0  0  0
   32.9571   16.4198  -12.5816 H   0  0  0  0  0  0  0  0  0  0  0  0
   32.9483   17.4309  -11.1349 H   0  0  0  0  0  0  0  0  0  0  0  0
   32.7049   19.4738  -12.5583 H   0  0  0  0  0  0  0  0  0  0  0  0
   32.7097   18.4664  -14.0084 H   0  0  0  0  0  0  0  0  0  0  0  0
   34.9783   17.5934  -13.3946 H   0  0  0  0  0  0  0  0  0  0  0  0
   34.9741   18.6082  -11.9507 H   0  0  0  0  0  0  0  0  0  0  0  0
   34.7381   20.6468  -13.3805 H   0  0  0  0  0  0  0  0  0  0  0  0
   34.7410   19.6336  -14.8270 H   0  0  0  0  0  0  0  0  0  0  0  0
   37.0081   18.7671  -14.2093 H   0  0  0  0  0  0  0  0  0  0  0  0
   37.0056   19.7857  -12.7675 H   0  0  0  0  0  0  0  0  0  0  0  0
   36.7569   21.8218  -14.2086 H   0  0  0  0  0  0  0  0  0  0  0  0
   36.7651   20.7990  -15.6494 H   0  0  0  0  0  0  0  0  0  0  0  0
   39.0337   19.9405  -15.0438 H   0  0  0  0  0  0  0  0  0  0  0  0
   39.0331   20.9509  -13.5952 H   0  0  0  0  0  0  0  0  0  0  0  0
   38.7861   22.9936  -15.0223 H   0  0  0  0  0  0  0  0  0  0  0  0
   38.7866   21.9819  -16.4706 H   0  0  0  0  0  0  0  0  0  0  0  0
   41.0548   21.1155  -15.8637 H   0  0  0  0  0  0  0  0  0  0  0  0
   41.0545   22.1287  -14.4170 H   0  0  0  0  0  0  0  0  0  0  0  0
   40.8115   24.1689  -15.8463 H   0  0  0  0  0  0  0  0  0  0  0  0
   40.8116   23.1554  -17.2927 H   0  0  0  0  0  0  0  0  0  0  0  0
   43.0801   22.2894  -16.6853 H   0  0  0  0  0  0  0  0  0  0  0  0
   43.0800   23.3032  -15.2392 H   0  0  0  0  0  0  0  0  0  0  0  0
   42.8372   25.3429  -16.6684 H   0  0  0  0  0  0  0  0  0  0  0  0
   42.8370   24.3296  -18.1149 H   0  0  0  0  0  0  0  0  0  0  0  0
   45.1069   23.4646  -17.5093 H   0  0  0  0  0  0  0  0  0  0  0  0
   45.1065   24.4779  -16.0627 H   0  0  0  0  0  0  0  0  0  0  0  0
   44.8657   26.5180  -17.4926 H   0  0  0  0  0  0  0  0  0  0  0  0
   44.8651   25.5053  -18.9391 H   0  0  0  0  0  0  0  0  0  0  0  0
   47.1347   24.6394  -18.3320 H   0  0  0  0  0  0  0  0  0  0  0  0
   47.1336   25.6525  -16.8855 H   0  0  0  0  0  0  0  0  0  0  0  0
   46.8981   27.6933  -18.3147 H   0  0  0  0  0  0  0  0  0  0  0  0
   46.8974   26.6807  -19.7611 H   0  0  0  0  0  0  0  0  0  0  0  0
   49.1656   25.8128  -19.1568 H   0  0  0  0  0  0  0  0  0  0  0  0
   49.1673   26.8237  -17.7088 H   0  0  0  0  0  0  0  0  0  0  0  0
   48.9305   28.8674  -19.1368 H   0  0  0  0  0  0  0  0  0  0  0  0
   48.9316   27.8554  -20.5839 H   0  0  0  0  0  0  0  0  0  0  0  0
   51.2041   26.9928  -19.9777 H   0  0  0  0  0  0  0  0  0  0  0  0
   51.2018   28.0080  -18.5324 H   0  0  0  0  0  0  0  0  0  0  0  0
   50.9660   30.0485  -19.9666 H   0  0  0  0  0  0  0  0  0  0  0  0
   50.9686   29.0328  -21.4110 H   0  0  0  0  0  0  0  0  0  0  0  0
   53.2407   28.1728  -20.8003 H   0  0  0  0  0  0  0  0  0  0  0  0
   53.2380   29.1919  -19.3586 H   0  0  0  0  0  0  0  0  0  0  0  0
   53.0192   31.2288  -20.7979 H   0  0  0  0  0  0  0  0  0  0  0  0
   53.0188   30.2109  -22.2403 H   0  0  0  0  0  0  0  0  0  0  0  0
   55.2894   29.3439  -21.6296 H   0  0  0  0  0  0  0  0  0  0  0  0
   55.2883   30.3593  -20.1848 H   0  0  0  0  0  0  0  0  0  0  0  0
   55.0783   32.3992  -21.6201 H   0  0  0  0  0  0  0  0  0  0  0  0
   55.0812   31.3851  -23.0633 H   0  0  0  0  0  0  0  0  0  0  0  0
   57.3628   30.5310  -22.4603 H   0  0  0  0  0  0  0  0  0  0  0  0
   57.3586   31.5462  -21.0138 H   0  0  0  0  0  0  0  0  0  0  0  0
   57.0904   33.5774  -22.4406 H   0  0  0  0  0  0  0  0  0  0  0  0
   57.1025   32.5620  -23.8876 H   0  0  0  0  0  0  0  0  0  0  0  0
   59.4401   31.8250  -23.3706 H   0  0  0  0  0  0  0  0  0  0  0  0
   59.4317   32.8261  -21.8959 H   0  0  0  0  0  0  0  0  0  0  0  0
   61.5912   33.1281  -24.2694 H   0  0  0  0  0  0  0  0  0  0  0  0
   61.6467   34.2097  -22.8404 H   0  0  0  0  0  0  0  0  0  0  0  0
   64.0019   35.2813  -23.7342 H   0  0  0  0  0  0  0  0  0  0  0  0
   64.1959   36.0154  -25.3370 H   0  0  0  0  0  0  0  0  0  0  0  0
   66.3866   34.6272  -25.9144 H   0  0  0  0  0  0  0  0  0  0  0  0
   66.4963   32.8621  -25.7665 H   0  0  0  0  0  0  0  0  0  0  0  0
   68.6673   32.9229  -24.2372 H   0  0  0  0  0  0  0  0  0  0  0  0
   68.8191   33.9229  -22.7794 H   0  0  0  0  0  0  0  0  0  0  0  0
   71.1043   35.0646  -23.5865 H   0  0  0  0  0  0  0  0  0  0  0  0
   71.3083   35.7951  -25.1914 H   0  0  0  0  0  0  0  0  0  0  0  0
   73.4623   34.3825  -25.7196 H   0  0  0  0  0  0  0  0  0  0  0  0
   73.5497   32.6131  -25.6450 H   0  0  0  0  0  0  0  0  0  0  0  0
   75.8258   32.7972  -24.1832 H   0  0  0  0  0  0  0  0  0  0  0  0
   75.8936   33.6561  -22.6321 H   0  0  0  0  0  0  0  0  0  0  0  0
   78.0276   34.0844  -24.9461 H   0  0  0  0  0  0  0  0  0  0  0  0
   78.1579   35.1016  -23.4742 H   0  0  0  0  0  0  0  0  0  0  0  0
   80.5396   36.1281  -24.3809 H   0  0  0  0  0  0  0  0  0  0  0  0
   80.6558   37.0160  -25.9086 H   0  0  0  0  0  0  0  0  0  0  0  0
   82.9585   33.8441  -26.4944 H   0  0  0  0  0  0  0  0  0  0  0  0
   82.8008   34.9091  -25.0942 H   0  0  0  0  0  0  0  0  0  0  0  0
   82.6777   35.7545  -28.3039 H   0  0  0  0  0  0  0  0  0  0  0  0
  1  2  1  0  0  0  0
  1 82  1  0  0  0  0
  1 83  1  0  0  0  0
  1 84  1  0  0  0  0
  2  3  1  0  0  0  0
  2 85  1  0  0  0  0
  3  4  1  0  0  0  0
  3 86  1  0  0  0  0
  3 87  1  0  0  0  0
  4  5  1  0  0  0  0
  4 88  1  0  0  0  0
  4 89  1  0  0  0  0
  5  6  1  0  0  0  0
  5 90  1  0  0  0  0
  5 91  1  0  0  0  0
  6  7  1  0  0  0  0
  6 92  1  0  0  0  0
  6 93  1  0  0  0  0
  7  8  1  0  0  0  0
  7 94  1  0  0  0  0
  7 95  1  0  0  0  0
  8  9  1  0  0  0  0
  9 10  1  0  0  0  0
 10 11  1  0  0  0  0
 11 12  1  0  0  0  0
 12 13  1  0  0  0  0
 13 14  1  0  0  0  0
 14 15  1  0  0  0  0
 15 16  1  0  0  0  0
 16 17  1  0  0  0  0
 17 18  1  0  0  0  0
 18 19  1  0  0  0  0
 19 20  1  0  0  0  0
 20 21  1  0  0  0  0
 21 22  1  0  0  0  0
 22 23  1  0  0  0  0
 22 96  1  0  0  0  0
 22 97  1  0  0  0  0
 23 24  1  0  0  0  0
 24 25  1  0  0  0  0
 24 98  1  0  0  0  0
 24 99  1  0  0  0  0
 25 26  1  0  0  0  0
 26 27  1  0  0  0  0
 26100  1  0  0  0  0
 26101  1  0  0  0  0
 27 28  1  0  0  0  0
 28 29  1  0  0  0  0
 28102  1  0  0  0  0
 28103  1  0  0  0  0
 29 30  1  0  0  0  0
 29104  1  0  0  0  0
 29105  1  0  0  0  0
 30 31  1  0  0  0  0
 30106  1  0  0  0  0
 30107  1  0  0  0  0
 31 32  1  0  0  0  0
 31108  1  0  0  0  0
 31109  1  0  0  0  0
 32 33  1  0  0  0  0
 32110  1  0  0  0  0
 32111  1  0  0  0  0
 33 34  1  0  0  0  0
 33112  1  0  0  0  0
 33113  1  0  0  0  0
 34 35  1  0  0  0  0
 34114  1  0  0  0  0
 34115  1  0  0  0  0
 35 36  1  0  0  0  0
 35116  1  0  0  0  0
 35117  1  0  0  0  0
 36 37  1  0  0  0  0
 36118  1  0  0  0  0
 36119  1  0  0  0  0
 37 38  1  0  0  0  0
 37120  1  0  0  0  0
 37121  1  0  0  0  0
 38 39  1  0  0  0  0
 38122  1  0  0  0  0
 38123  1  0  0  0  0
 39 40  1  0  0  0  0
 39124  1  0  0  0  0
 39125  1  0  0  0  0
 40 41  1  0  0  0  0
 40126  1  0  0  0  0
 40127  1  0  0  0  0
 41 42  1  0  0  0  0
 41128  1  0  0  0  0
 41129  1  0  0  0  0
 42 43  1  0  0  0  0
 42130  1  0  0  0  0
 42131  1  0  0  0  0
 43 44  1  0  0  0  0
 43132  1  0  0  0  0
 43133  1  0  0  0  0
 44 45  1  0  0  0  0
 44134  1  0  0  0  0
 44135  1  0  0  0  0
 45 46  1  0  0  0  0
 45136  1  0  0  0  0
 45137  1  0  0  0  0
 46 47  1  0  0  0  0
 46138  1  0  0  0  0
 46139  1  0  0  0  0
 47 48  1  0  0  0  0
 47140  1  0  0  0  0
 47141  1  0  0  0  0
 48 49  1  0  0  0  0
 48142  1  0  0  0  0
 48143  1  0  0  0  0
 49 50  1  0  0  0  0
 49144  1  0  0  0  0
 49145  1  0  0  0  0
 50 51  1  0  0  0  0
 50146  1  0  0  0  0
 50147  1  0  0  0  0
 51 52  1  0  0  0  0
 51148  1  0  0  0  0
 51149  1  0  0  0  0
 52 53  1  0  0  0  0
 52150  1  0  0  0  0
 52151  1  0  0  0  0
 53 54  1  0  0  0  0
 53152  1  0  0  0  0
 53153  1  0  0  0  0
 54 55  1  0  0  0  0
 54154  1  0  0  0  0
 54155  1  0  0  0  0
 55 56  1  0  0  0  0
 55156  1  0  0  0  0
 55157  1  0  0  0  0
 56 57  1  0  0  0  0
 56158  1  0  0  0  0
 56159  1  0  0  0  0
 57 58  1  0  0  0  0
 57160  1  0  0  0  0
 57161  1  0  0  0  0
 58 59  1  0  0  0  0
 58162  1  0  0  0  0
 58163  1  0  0  0  0
 59 60  1  0  0  0  0
 59164  1  0  0  0  0
 59165  1  0  0  0  0
 60 61  1  0  0  0  0
 60166  1  0  0  0  0
 60167  1  0  0  0  0
 61 62  1  0  0  0  0
 62 63  1  0  0  0  0
 62168  1  0  0  0  0
 62169  1  0  0  0  0
 63 64  1  0  0  0  0
 64 65  1  0  0  0  0
 64170  1  0  0  0  0
 64171  1  0  0  0  0
 65 66  1  0  0  0  0
 66 67  1  0  0  0  0
 66172  1  0  0  0  0
 66173  1  0  0  0  0
 67 68  1  0  0  0  0
 68 69  1  0  0  0  0
 68174  1  0  0  0  0
 68175  1  0  0  0  0
 69 70  1  0  0  0  0
 70 71  1  0  0  0  0
 70176  1  0  0  0  0
 70177  1  0  0  0  0
 71 72  1  0  0  0  0
 72 73  1  0  0  0  0
 72178  1  0  0  0  0
 72179  1  0  0  0  0
 73 74  1  0  0  0  0
 74 75  1  0  0  0  0
 74180  1  0  0  0  0
 74181  1  0  0  0  0
 75 76  1  0  0  0  0
 76 77  1  0  0  0  0
 76182  1  0  0  0  0
 76183  1  0  0  0  0
 77 78  1  0  0  0  0
 78 79  1  0  0  0  0
 78184  1  0  0  0  0
 78185  1  0  0  0  0
 79 80  1  0  0  0  0
 80 81  1  0  0  0  0
 80186  1  0  0  0  0
 80187  1  0  0  0  0
 81188  1  0  0  0  0
M  END
$$$$
