
 OpenBabel04232216523D

 73 73  0  0  1  0  0  0  0  0999 V2000
    5.8950    0.0893    3.4935 C   0  0  0  0  0  0  0  0  0  0  0  0
    4.4977   -0.5114    3.4804 C   0  0  0  0  0  0  0  0  0  0  0  0
    4.0639   -0.7958    2.0476 C   0  0  0  0  0  0  0  0  0  0  0  0
    2.6596   -1.3941    1.9745 C   0  0  0  0  0  0  0  0  0  0  0  0
    2.2798   -1.6624    0.5497 C   0  0  3  0  0  0  0  0  0  0  0  0
    1.0431   -2.2094    0.1937 C   0  0  0  0  0  0  0  0  0  0  0  0
    0.2484   -3.2499    0.1161 C   0  0  0  0  0  0  0  0  0  0  0  0
    0.6560   -4.6208    0.5619 C   0  0  0  0  0  0  0  0  0  0  0  0
   -0.0313   -5.7443   -0.2229 C   0  0  0  0  0  0  0  0  0  0  0  0
    0.4291   -7.1134    0.2846 C   0  0  0  0  0  0  0  0  0  0  0  0
    0.1095   -7.3280    1.7608 C   0  0  0  0  0  0  0  0  0  0  0  0
   -1.3799   -7.2432    2.0126 C   0  0  0  0  0  0  0  0  0  0  0  0
   -1.9212   -6.1669    2.2692 O   0  0  0  0  0  0  0  0  0  0  0  0
   -2.1602   -8.5316    1.8845 C   0  0  0  0  0  0  0  0  0  0  0  0
   -3.6351   -8.2735    2.1444 C   0  0  0  0  0  0  0  0  0  0  0  0
   -4.4525   -9.5472    2.0420 C   0  0  0  0  0  0  0  0  0  0  0  0
   -5.9184   -9.2377    2.3102 C   0  0  0  0  0  0  0  0  0  0  0  0
   -6.7480  -10.5050    2.2106 C   0  0  0  0  0  0  0  0  0  0  0  0
   -8.2114  -10.1973    2.4780 C   0  0  0  0  0  0  0  0  0  0  0  0
   -9.0359  -11.4691    2.3769 C   0  0  0  0  0  0  0  0  0  0  0  0
  -10.5009  -11.1680    2.6434 C   0  0  0  0  0  0  0  0  0  0  0  0
  -11.3255  -12.4414    2.5419 C   0  0  0  0  0  0  0  0  0  0  0  0
  -12.7916  -12.1371    2.8072 C   0  0  0  0  0  0  0  0  0  0  0  0
  -13.6270  -13.4044    2.7083 C   0  0  0  0  0  0  0  0  0  0  0  0
  -15.0929  -13.0995    2.9757 C   0  0  0  0  0  0  0  0  0  0  0  0
  -15.9201  -14.3578    2.8792 C   0  0  0  0  0  0  0  0  0  0  0  0
  -15.4591  -15.4548    2.6235 O   0  0  0  0  0  0  0  0  0  0  0  0
    1.1896   -0.8588   -0.0768 C   0  0  0  0  0  3  0  0  0  0  0  0
    6.2152    0.2897    4.5200 H   0  0  0  0  0  0  0  0  0  0  0  0
    5.9185    1.0295    2.9349 H   0  0  0  0  0  0  0  0  0  0  0  0
    6.6165   -0.5958    3.0370 H   0  0  0  0  0  0  0  0  0  0  0  0
    3.7933    0.1778    3.9601 H   0  0  0  0  0  0  0  0  0  0  0  0
    4.4970   -1.4410    4.0599 H   0  0  0  0  0  0  0  0  0  0  0  0
    4.7805   -1.4926    1.5985 H   0  0  0  0  0  0  0  0  0  0  0  0
    4.1033    0.1257    1.4515 H   0  0  0  0  0  0  0  0  0  0  0  0
    1.9410   -0.6992    2.4316 H   0  0  0  0  0  0  0  0  0  0  0  0
    2.6268   -2.3183    2.5638 H   0  0  0  0  0  0  0  0  0  0  0  0
    3.1227   -1.8805   -0.0941 H   0  0  0  0  0  0  0  0  0  0  0  0
   -0.7477   -3.1278   -0.2967 H   0  0  0  0  0  0  0  0  0  0  0  0
    0.4005   -4.7271    1.6180 H   0  0  0  0  0  0  0  0  0  0  0  0
    1.7413   -4.7376    0.4691 H   0  0  0  0  0  0  0  0  0  0  0  0
    0.1915   -5.6553   -1.2930 H   0  0  0  0  0  0  0  0  0  0  0  0
   -1.1194   -5.6628   -0.1214 H   0  0  0  0  0  0  0  0  0  0  0  0
    1.5122   -7.2110    0.1314 H   0  0  0  0  0  0  0  0  0  0  0  0
   -0.0480   -7.9036   -0.3102 H   0  0  0  0  0  0  0  0  0  0  0  0
    0.6074   -6.5847    2.3884 H   0  0  0  0  0  0  0  0  0  0  0  0
    0.4644   -8.3055    2.0928 H   0  0  0  0  0  0  0  0  0  0  0  0
   -1.7616   -9.2434    2.6135 H   0  0  0  0  0  0  0  0  0  0  0  0
   -2.0145   -8.9373    0.8763 H   0  0  0  0  0  0  0  0  0  0  0  0
   -4.0139   -7.5354    1.4256 H   0  0  0  0  0  0  0  0  0  0  0  0
   -3.7626   -7.8349    3.1426 H   0  0  0  0  0  0  0  0  0  0  0  0
   -4.0890  -10.2857    2.7665 H   0  0  0  0  0  0  0  0  0  0  0  0
   -4.3409   -9.9852    1.0429 H   0  0  0  0  0  0  0  0  0  0  0  0
   -6.2830   -8.4966    1.5879 H   0  0  0  0  0  0  0  0  0  0  0  0
   -6.0315   -8.7966    3.3086 H   0  0  0  0  0  0  0  0  0  0  0  0
   -6.3849  -11.2451    2.9343 H   0  0  0  0  0  0  0  0  0  0  0  0
   -6.6365  -10.9450    1.2119 H   0  0  0  0  0  0  0  0  0  0  0  0
   -8.5757   -9.4573    1.7546 H   0  0  0  0  0  0  0  0  0  0  0  0
   -8.3243   -9.7570    3.4766 H   0  0  0  0  0  0  0  0  0  0  0  0
   -8.6696  -12.2083    3.1002 H   0  0  0  0  0  0  0  0  0  0  0  0
   -8.9210  -11.9083    1.3782 H   0  0  0  0  0  0  0  0  0  0  0  0
  -10.8655  -10.4276    1.9204 H   0  0  0  0  0  0  0  0  0  0  0  0
  -10.6147  -10.7291    3.6421 H   0  0  0  0  0  0  0  0  0  0  0  0
  -10.9591  -13.1790    3.2666 H   0  0  0  0  0  0  0  0  0  0  0  0
  -11.2088  -12.8811    1.5439 H   0  0  0  0  0  0  0  0  0  0  0  0
  -13.1525  -11.3979    2.0826 H   0  0  0  0  0  0  0  0  0  0  0  0
  -12.9032  -11.6964    3.8046 H   0  0  0  0  0  0  0  0  0  0  0  0
  -13.2628  -14.1485    3.4277 H   0  0  0  0  0  0  0  0  0  0  0  0
  -13.5135  -13.8496    1.7120 H   0  0  0  0  0  0  0  0  0  0  0  0
  -15.4732  -12.3793    2.2427 H   0  0  0  0  0  0  0  0  0  0  0  0
  -15.2188  -12.6798    3.9800 H   0  0  0  0  0  0  0  0  0  0  0  0
  -17.0042  -14.2301    3.0588 H   0  0  0  0  0  0  0  0  0  0  0  0
    0.6500   -0.0939    0.4651 H   0  0  0  0  0  0  0  0  0  0  0  0
  1  2  1  0  0  0  0
  1 29  1  0  0  0  0
  1 30  1  0  0  0  0
  1 31  1  0  0  0  0
  2  3  1  0  0  0  0
  2 32  1  0  0  0  0
  2 33  1  0  0  0  0
  3  4  1  0  0  0  0
  3 34  1  0  0  0  0
  3 35  1  0  0  0  0
  4  5  1  0  0  0  0
  4 36  1  0  0  0  0
  4 37  1  0  0  0  0
  5  6  1  0  0  0  0
  5 28  1  0  0  0  0
  5 38  1  0  0  0  0
  6  7  2  3  0  0  0
  6 28  1  0  0  0  0
  7  8  1  0  0  0  0
  7 39  1  0  0  0  0
  8  9  1  0  0  0  0
  8 40  1  0  0  0  0
  8 41  1  0  0  0  0
  9 10  1  0  0  0  0
  9 42  1  0  0  0  0
  9 43  1  0  0  0  0
 10 11  1  0  0  0  0
 10 44  1  0  0  0  0
 10 45  1  0  0  0  0
 11 12  1  0  0  0  0
 11 46  1  0  0  0  0
 11 47  1  0  0  0  0
 12 13  2  0  0  0  0
 12 14  1  0  0  0  0
 14 15  1  0  0  0  0
 14 48  1  0  0  0  0
 14 49  1  0  0  0  0
 15 16  1  0  0  0  0
 15 50  1  0  0  0  0
 15 51  1  0  0  0  0
 16 17  1  0  0  0  0
 16 52  1  0  0  0  0
 16 53  1  0  0  0  0
 17 18  1  0  0  0  0
 17 54  1  0  0  0  0
 17 55  1  0  0  0  0
 18 19  1  0  0  0  0
 18 56  1  0  0  0  0
 18 57  1  0  0  0  0
 19 20  1  0  0  0  0
 19 58  1  0  0  0  0
 19 59  1  0  0  0  0
 20 21  1  0  0  0  0
 20 60  1  0  0  0  0
 20 61  1  0  0  0  0
 21 22  1  0  0  0  0
 21 62  1  0  0  0  0
 21 63  1  0  0  0  0
 22 23  1  0  0  0  0
 22 64  1  0  0  0  0
 22 65  1  0  0  0  0
 23 24  1  0  0  0  0
 23 66  1  0  0  0  0
 23 67  1  0  0  0  0
 24 25  1  0  0  0  0
 24 68  1  0  0  0  0
 24 69  1  0  0  0  0
 25 26  1  0  0  0  0
 25 70  1  0  0  0  0
 25 71  1  0  0  0  0
 26 27  2  0  0  0  0
 26 72  1  0  0  0  0
 28 73  1  0  0  0  0
M  END
$$$$
