
 OpenBabel04232216493D

 67 69  0  0  0  0  0  0  0  0999 V2000
    5.7187    1.8339   -2.1234 C   0  0  0  0  0  0  0  0  0  0  0  0
    6.5962    0.9343   -3.0222 C   0  0  0  0  0  0  0  0  0  0  0  0
    5.7409   -0.2656   -3.0873 C   0  0  0  0  0  0  0  0  0  0  0  0
    5.5916   -1.2363   -2.1580 C   0  0  0  0  0  0  0  0  0  0  0  0
    5.6037   -2.5922   -2.7373 C   0  0  0  0  0  0  0  0  0  0  0  0
    6.8864   -2.9426   -2.9567 C   0  0  0  0  0  0  0  0  0  0  0  0
    7.6192   -2.8229   -4.2639 C   0  0  0  0  0  0  0  0  0  0  0  0
    6.9103   -1.9087   -5.3080 C   0  0  0  0  0  0  0  0  0  0  0  0
    7.4135   -1.6054   -6.7206 C   0  0  0  0  0  0  0  0  0  0  0  0
    7.3311   -2.8097   -7.6184 C   0  0  0  0  0  0  0  0  0  0  0  0
    5.8863   -3.2840   -7.7373 C   0  0  0  0  0  0  0  0  0  0  0  0
    5.8239   -4.5651   -8.5331 C   0  0  0  0  0  0  0  0  0  0  0  0
    4.3931   -5.0799   -8.5943 C   0  0  0  0  0  0  0  0  0  0  0  0
    4.3598   -6.3890   -9.3576 C   0  0  0  0  0  0  0  0  0  0  0  0
    8.9799   -2.8319   -4.1160 C   0  0  0  0  0  0  0  0  0  0  0  0
    9.5681   -1.6523   -4.4945 N   0  0  0  0  0  0  0  0  0  0  0  0
    9.2422   -0.7258   -3.7280 N   0  0  0  0  0  0  0  0  0  0  0  0
    8.8667    0.3569   -4.4813 N   0  0  0  0  0  0  0  0  0  0  0  0
   10.1801    0.8770   -5.2982 C   0  0  0  0  0  0  0  0  0  0  0  0
   10.9781    0.2933   -6.6840 C   0  0  0  0  0  0  0  0  0  0  0  0
   11.6553    1.3507   -7.3885 C   0  0  0  0  0  0  0  0  0  0  0  0
   12.5460    1.2078   -8.5142 C   0  0  0  0  0  0  0  0  0  0  0  0
   12.8187   -0.0435   -9.0355 C   0  0  0  0  0  0  0  0  0  0  0  0
   12.2485   -1.1152   -8.3924 C   0  0  0  0  0  0  0  0  0  0  0  0
   11.3766   -0.9898   -7.2092 C   0  0  0  0  0  0  0  0  0  0  0  0
   11.2344   -2.3583   -6.7209 C   0  0  0  0  0  0  0  0  0  0  0  0
   11.8449   -2.7629   -5.6045 C   0  0  0  0  0  0  0  0  0  0  0  0
   11.7638   -4.1407   -5.1830 C   0  0  0  0  0  0  0  0  0  0  0  0
   11.9130   -4.4377   -3.8858 C   0  0  0  0  0  0  0  0  0  0  0  0
   10.8718   -4.1397   -2.9153 C   0  0  0  0  0  0  0  0  0  0  0  0
    9.6865   -3.5093   -3.0189 C   0  0  0  0  0  0  0  0  0  0  0  0
    7.8250    1.1862   -3.6756 C   0  0  0  0  0  0  0  0  0  0  0  0
    4.6881    1.9101   -2.5336 H   0  0  0  0  0  0  0  0  0  0  0  0
    6.0775    2.8459   -1.9477 H   0  0  0  0  0  0  0  0  0  0  0  0
    5.5677    1.3675   -1.1347 H   0  0  0  0  0  0  0  0  0  0  0  0
    5.1650   -0.3676   -4.0105 H   0  0  0  0  0  0  0  0  0  0  0  0
    6.0445   -1.1441   -1.1713 H   0  0  0  0  0  0  0  0  0  0  0  0
    4.8330   -2.8355   -3.4606 H   0  0  0  0  0  0  0  0  0  0  0  0
    7.5373   -2.4960   -2.1844 H   0  0  0  0  0  0  0  0  0  0  0  0
    6.8934   -0.9064   -4.9099 H   0  0  0  0  0  0  0  0  0  0  0  0
    5.8509   -2.1731   -5.3603 H   0  0  0  0  0  0  0  0  0  0  0  0
    8.4281   -1.2009   -6.7213 H   0  0  0  0  0  0  0  0  0  0  0  0
    6.7942   -0.7989   -7.1432 H   0  0  0  0  0  0  0  0  0  0  0  0
    7.9719   -3.5978   -7.2121 H   0  0  0  0  0  0  0  0  0  0  0  0
    7.7185   -2.5444   -8.6086 H   0  0  0  0  0  0  0  0  0  0  0  0
    5.2677   -2.5011   -8.1941 H   0  0  0  0  0  0  0  0  0  0  0  0
    5.4556   -3.4942   -6.7535 H   0  0  0  0  0  0  0  0  0  0  0  0
    6.4641   -5.3129   -8.0498 H   0  0  0  0  0  0  0  0  0  0  0  0
    6.2195   -4.3928   -9.5407 H   0  0  0  0  0  0  0  0  0  0  0  0
    3.7481   -4.3432   -9.0860 H   0  0  0  0  0  0  0  0  0  0  0  0
    4.0004   -5.2380   -7.5822 H   0  0  0  0  0  0  0  0  0  0  0  0
    4.7396   -6.2517  -10.3746 H   0  0  0  0  0  0  0  0  0  0  0  0
    3.3392   -6.7742   -9.4158 H   0  0  0  0  0  0  0  0  0  0  0  0
    4.9844   -7.1377   -8.8597 H   0  0  0  0  0  0  0  0  0  0  0  0
   10.9937    0.8975   -4.5594 H   0  0  0  0  0  0  0  0  0  0  0  0
    9.9411    1.9192   -5.5484 H   0  0  0  0  0  0  0  0  0  0  0  0
   11.5453    2.3767   -7.0577 H   0  0  0  0  0  0  0  0  0  0  0  0
   13.0398    2.0464   -8.9477 H   0  0  0  0  0  0  0  0  0  0  0  0
   13.5100   -0.1900   -9.8895 H   0  0  0  0  0  0  0  0  0  0  0  0
   12.5298   -2.1243   -8.7494 H   0  0  0  0  0  0  0  0  0  0  0  0
   10.8262   -3.0989   -7.4094 H   0  0  0  0  0  0  0  0  0  0  0  0
   12.2886   -2.0347   -4.9301 H   0  0  0  0  0  0  0  0  0  0  0  0
   12.1102   -4.8671   -5.9197 H   0  0  0  0  0  0  0  0  0  0  0  0
   12.8091   -4.0036   -3.4170 H   0  0  0  0  0  0  0  0  0  0  0  0
   11.1127   -4.5126   -1.9284 H   0  0  0  0  0  0  0  0  0  0  0  0
    9.1861   -3.4443   -2.0593 H   0  0  0  0  0  0  0  0  0  0  0  0
    8.2472    2.1821   -3.5657 H   0  0  0  0  0  0  0  0  0  0  0  0
  1  2  1  0  0  0  0
  1 33  1  0  0  0  0
  1 34  1  0  0  0  0
  1 35  1  0  0  0  0
  2  3  1  0  0  0  0
  2 32  2  3  0  0  0
  3  4  2  3  0  0  0
  3 36  1  0  0  0  0
  4  5  1  0  0  0  0
  4 37  1  0  0  0  0
  5  6  2  3  0  0  0
  5 38  1  0  0  0  0
  6  7  1  0  0  0  0
  6 39  1  0  0  0  0
  7  8  1  0  0  0  0
  7 15  2  3  0  0  0
  8  9  1  0  0  0  0
  8 40  1  0  0  0  0
  8 41  1  0  0  0  0
  9 10  1  0  0  0  0
  9 42  1  0  0  0  0
  9 43  1  0  0  0  0
 10 11  1  0  0  0  0
 10 44  1  0  0  0  0
 10 45  1  0  0  0  0
 11 12  1  0  0  0  0
 11 46  1  0  0  0  0
 11 47  1  0  0  0  0
 12 13  1  0  0  0  0
 12 48  1  0  0  0  0
 12 49  1  0  0  0  0
 13 14  1  0  0  0  0
 13 50  1  0  0  0  0
 13 51  1  0  0  0  0
 14 52  1  0  0  0  0
 14 53  1  0  0  0  0
 14 54  1  0  0  0  0
 15 16  1  0  0  0  0
 15 31  1  0  0  0  0
 16 17  2  3  0  0  0
 17 18  1  0  0  0  0
 18 19  1  0  0  0  0
 18 32  1  0  0  0  0
 19 20  1  0  0  0  0
 19 55  1  0  0  0  0
 19 56  1  0  0  0  0
 20 21  1  0  0  0  0
 20 25  2  0  0  0  0
 21 22  2  0  0  0  0
 21 57  1  0  0  0  0
 22 23  1  0  0  0  0
 22 58  1  0  0  0  0
 23 24  2  0  0  0  0
 23 59  1  0  0  0  0
 24 25  1  0  0  0  0
 24 60  1  0  0  0  0
 25 26  1  0  0  0  0
 26 27  2  3  0  0  0
 26 61  1  0  0  0  0
 27 28  1  0  0  0  0
 27 62  1  0  0  0  0
 28 29  2  3  0  0  0
 28 63  1  0  0  0  0
 29 30  1  0  0  0  0
 29 64  1  0  0  0  0
 30 31  2  3  0  0  0
 30 65  1  0  0  0  0
 31 66  1  0  0  0  0
 32 67  1  0  0  0  0
M  END
$$$$
