
 OpenBabel04232216453D

 44 45  0  0  0  0  0  0  0  0999 V2000
    5.4374    0.9547    2.5616 C   0  0  0  0  0  0  0  0  0  0  0  0
    6.0824   -0.0400    1.5198 C   0  0  0  0  0  0  0  0  0  0  0  0
    5.1299    0.1578    0.5279 C   0  0  0  0  0  0  0  0  0  0  0  0
    5.3585    0.6925   -0.7920 C   0  0  0  0  0  0  0  0  0  0  0  0
    5.4170    2.1833   -0.9543 C   0  0  0  0  0  0  0  0  0  0  0  0
    6.0466   -0.2521   -1.4523 C   0  0  0  0  0  0  0  0  0  0  0  0
    5.4393   -1.6898   -1.3181 C   0  0  0  0  0  0  0  0  0  0  0  0
    7.4259   -0.0783   -1.5755 N   0  0  0  0  0  0  0  0  0  0  0  0
    8.2742    0.9952   -1.0446 C   0  0  0  0  0  0  0  0  0  0  0  0
    8.0346   -1.2391   -1.6428 N   0  0  0  0  0  0  0  0  0  0  0  0
    8.1797   -1.9385   -0.5715 C   0  0  0  0  0  0  0  0  0  0  0  0
    8.4533   -3.3579   -0.9545 C   0  0  0  0  0  0  0  0  0  0  0  0
    9.5138   -3.3726   -1.8614 C   0  0  0  0  0  0  0  0  0  0  0  0
   10.7273   -3.9628   -1.3545 C   0  0  0  0  0  0  0  0  0  0  0  0
   11.1680   -3.2319   -0.3136 C   0  0  0  0  0  0  0  0  0  0  0  0
   10.4107   -3.4249    0.9764 C   0  0  0  0  0  0  0  0  0  0  0  0
   11.1952   -4.6121    1.5960 C   0  0  0  0  0  0  0  0  0  0  0  0
    9.8206   -2.3243    1.5634 C   0  0  0  0  0  0  0  0  0  0  0  0
   10.9019   -1.6081    2.3865 C   0  0  0  0  0  0  0  0  0  0  0  0
    8.3220   -1.4922    0.9443 C   0  0  0  0  0  0  0  0  0  0  0  0
    7.4669   -0.6580    1.6639 N   0  0  0  0  0  0  0  0  0  0  0  0
    4.5414    0.5204    3.0466 H   0  0  0  0  0  0  0  0  0  0  0  0
    4.9904    1.8302    2.0234 H   0  0  0  0  0  0  0  0  0  0  0  0
    6.0927    1.4546    3.2642 H   0  0  0  0  0  0  0  0  0  0  0  0
    4.0893    0.4313    0.7657 H   0  0  0  0  0  0  0  0  0  0  0  0
    4.4126    2.5935   -1.0699 H   0  0  0  0  0  0  0  0  0  0  0  0
    5.9794    2.4802   -1.8486 H   0  0  0  0  0  0  0  0  0  0  0  0
    5.8784    2.6642   -0.0822 H   0  0  0  0  0  0  0  0  0  0  0  0
    4.3376   -1.6686   -1.2827 H   0  0  0  0  0  0  0  0  0  0  0  0
    5.7325   -2.1772   -0.3665 H   0  0  0  0  0  0  0  0  0  0  0  0
    5.7176   -2.3597   -2.1325 H   0  0  0  0  0  0  0  0  0  0  0  0
    7.7856    1.9530   -0.8762 H   0  0  0  0  0  0  0  0  0  0  0  0
    9.1098    1.1747   -1.7226 H   0  0  0  0  0  0  0  0  0  0  0  0
    8.7206    0.7246   -0.0781 H   0  0  0  0  0  0  0  0  0  0  0  0
    8.2945   -4.1269   -0.2195 H   0  0  0  0  0  0  0  0  0  0  0  0
    9.7362   -2.4585   -2.4382 H   0  0  0  0  0  0  0  0  0  0  0  0
   10.5488   -5.0376   -1.2407 H   0  0  0  0  0  0  0  0  0  0  0  0
   11.4344   -2.1777   -0.4835 H   0  0  0  0  0  0  0  0  0  0  0  0
   10.5579   -5.5024    1.5836 H   0  0  0  0  0  0  0  0  0  0  0  0
   11.5500   -4.4326    2.6136 H   0  0  0  0  0  0  0  0  0  0  0  0
   12.0782   -4.8970    1.0112 H   0  0  0  0  0  0  0  0  0  0  0  0
   11.0272   -0.5502    2.1614 H   0  0  0  0  0  0  0  0  0  0  0  0
   11.9045   -2.0256    2.1176 H   0  0  0  0  0  0  0  0  0  0  0  0
   10.8477   -1.8115    3.4601 H   0  0  0  0  0  0  0  0  0  0  0  0
  1  2  1  0  0  0  0
  1 22  1  0  0  0  0
  1 23  1  0  0  0  0
  1 24  1  0  0  0  0
  2  3  2  0  0  0  0
  2 21  1  0  0  0  0
  3  4  1  0  0  0  0
  3 25  1  0  0  0  0
  4  5  1  0  0  0  0
  4  6  2  0  0  0  0
  5 26  1  0  0  0  0
  5 27  1  0  0  0  0
  5 28  1  0  0  0  0
  6  7  1  0  0  0  0
  6  8  1  0  0  0  0
  7 29  1  0  0  0  0
  7 30  1  0  0  0  0
  7 31  1  0  0  0  0
  8  9  1  0  0  0  0
  8 10  1  0  0  0  0
  9 32  1  0  0  0  0
  9 33  1  0  0  0  0
  9 34  1  0  0  0  0
 10 11  2  0  0  0  0
 11 12  1  0  0  0  0
 11 20  1  0  0  0  0
 12 13  2  0  0  0  0
 12 35  1  0  0  0  0
 13 14  1  0  0  0  0
 13 36  1  0  0  0  0
 14 15  2  0  0  0  0
 14 37  1  0  0  0  0
 15 16  1  0  0  0  0
 15 38  1  0  0  0  0
 16 17  1  0  0  0  0
 16 18  2  0  0  0  0
 17 39  1  0  0  0  0
 17 40  1  0  0  0  0
 17 41  1  0  0  0  0
 18 19  1  0  0  0  0
 18 20  1  0  0  0  0
 19 42  1  0  0  0  0
 19 43  1  0  0  0  0
 19 44  1  0  0  0  0
 20 21  2  0  0  0  0
M  END
$$$$
