
 OpenBabel04232216573D

106105  0  0  0  0  0  0  0  0999 V2000
   26.7973  -10.7760   26.1096 C   0  0  0  0  0  0  0  0  0  0  0  0
   28.1913  -11.0498   25.9081 N   0  0  0  0  0  0  0  0  0  0  0  0
   28.8953  -11.1314   27.2203 C   0  0  0  0  0  0  0  0  0  0  0  0
   30.4096  -11.3271   27.0478 C   0  0  0  0  0  0  0  0  0  0  0  0
   31.0789  -10.2882   26.2907 N   0  0  0  0  0  0  0  0  0  0  0  0
   30.8830   -9.0624   26.9989 N   0  0  0  0  0  0  0  0  0  0  0  0
   31.3451   -7.9652   26.2830 N   0  0  0  0  0  0  0  0  0  0  0  0
   30.6606   -7.7672   25.0528 N   0  0  0  0  0  0  0  0  0  0  0  0
   29.2615   -7.6073   25.2313 N   0  0  0  0  0  0  0  0  0  0  0  0
   29.0116   -6.4544   26.0124 N   0  0  0  0  0  0  0  0  0  0  0  0
   29.5361   -5.3000   25.3362 N   0  0  0  0  0  0  0  0  0  0  0  0
   28.9222   -5.1750   24.0339 N   0  0  0  0  0  0  0  0  0  0  0  0
   27.5004   -5.0101   24.1575 N   0  0  0  0  0  0  0  0  0  0  0  0
   27.1843   -3.8271   24.9185 N   0  0  0  0  0  0  0  0  0  0  0  0
   27.7179   -2.6387   24.2929 N   0  0  0  0  0  0  0  0  0  0  0  0
   27.1409   -2.4045   23.0038 N   0  0  0  0  0  0  0  0  0  0  0  0
   25.7140   -2.2688   23.0356 N   0  0  0  0  0  0  0  0  0  0  0  0
   25.1622   -0.9546   23.8904 S   0  0  0  0  0  0  0  0  0  0  0  0
   25.8342    0.3924   23.2083 N   0  0  0  0  0  0  0  0  0  0  0  0
   25.3045    0.6892   21.6652 S   0  0  0  0  0  0  0  0  0  0  0  0
   25.8372   -0.5639   20.6822 N   0  0  0  0  0  0  0  0  0  0  0  0
   25.2474   -0.3445   19.1426 S   0  0  0  0  0  0  0  0  0  0  0  0
   25.7576   -1.5918   18.1498 N   0  0  0  0  0  0  0  0  0  0  0  0
   25.1765   -3.0471   18.6925 S   0  0  0  0  0  0  0  0  0  0  0  0
   25.9009   -4.3688   17.2861 S   0  0  0  0  0  0  0  0  0  0  0  0
   27.9736   -4.3847   17.3555 S   0  0  0  0  0  0  0  0  0  0  0  0
   28.6388   -5.0354   19.2141 S   0  0  0  0  0  0  0  0  0  0  0  0
   30.7454   -4.9788   19.1797 S   0  0  0  0  0  0  0  0  0  0  0  0
   31.4567   -5.4780   21.0996 S   0  0  0  0  0  0  0  0  0  0  0  0
   33.5695   -5.4765   21.0803 S   0  0  0  0  0  0  0  0  0  0  0  0
   34.2691   -5.9781   23.0129 S   0  0  0  0  0  0  0  0  0  0  0  0
   36.3835   -5.9750   23.0027 S   0  0  0  0  0  0  0  0  0  0  0  0
   37.0791   -6.4768   24.9341 S   0  0  0  0  0  0  0  0  0  0  0  0
   39.1912   -6.4738   24.9234 S   0  0  0  0  0  0  0  0  0  0  0  0
   39.8839   -6.9752   26.8538 S   0  0  0  0  0  0  0  0  0  0  0  0
   41.9945   -6.9721   26.8420 S   0  0  0  0  0  0  0  0  0  0  0  0
   42.6860   -7.4733   28.7716 S   0  0  0  0  0  0  0  0  0  0  0  0
   44.7958   -7.4701   28.7591 S   0  0  0  0  0  0  0  0  0  0  0  0
   45.4867   -7.9712   30.6884 S   0  0  0  0  0  0  0  0  0  0  0  0
   47.5963   -7.9679   30.6757 S   0  0  0  0  0  0  0  0  0  0  0  0
   48.2870   -8.4689   32.6049 S   0  0  0  0  0  0  0  0  0  0  0  0
   50.3964   -8.4656   32.5921 S   0  0  0  0  0  0  0  0  0  0  0  0
   51.0870   -8.9666   34.5213 S   0  0  0  0  0  0  0  0  0  0  0  0
   53.1964   -8.9633   34.5085 S   0  0  0  0  0  0  0  0  0  0  0  0
   53.8871   -9.4644   36.4376 S   0  0  0  0  0  0  0  0  0  0  0  0
   55.9964   -9.4610   36.4248 S   0  0  0  0  0  0  0  0  0  0  0  0
   56.6871   -9.9621   38.3540 S   0  0  0  0  0  0  0  0  0  0  0  0
   58.7964   -9.9587   38.3411 S   0  0  0  0  0  0  0  0  0  0  0  0
   59.4870  -10.4598   40.2703 S   0  0  0  0  0  0  0  0  0  0  0  0
   61.5964  -10.4565   40.2575 S   0  0  0  0  0  0  0  0  0  0  0  0
   62.2870  -10.9575   42.1866 S   0  0  0  0  0  0  0  0  0  0  0  0
   64.3964  -10.9542   42.1738 S   0  0  0  0  0  0  0  0  0  0  0  0
   65.0870  -11.4552   44.1029 S   0  0  0  0  0  0  0  0  0  0  0  0
   67.1964  -11.4519   44.0901 S   0  0  0  0  0  0  0  0  0  0  0  0
   67.8870  -11.9529   46.0193 S   0  0  0  0  0  0  0  0  0  0  0  0
   69.9964  -11.9496   46.0064 S   0  0  0  0  0  0  0  0  0  0  0  0
   70.6870  -12.4507   47.9356 S   0  0  0  0  0  0  0  0  0  0  0  0
   72.7964  -12.4473   47.9228 S   0  0  0  0  0  0  0  0  0  0  0  0
   73.4870  -12.9484   49.8519 S   0  0  0  0  0  0  0  0  0  0  0  0
   75.5964  -12.9450   49.8391 S   0  0  0  0  0  0  0  0  0  0  0  0
   76.2870  -13.4461   51.7682 S   0  0  0  0  0  0  0  0  0  0  0  0
   78.3964  -13.4428   51.7554 S   0  0  0  0  0  0  0  0  0  0  0  0
   79.0870  -13.9438   53.6845 S   0  0  0  0  0  0  0  0  0  0  0  0
   81.1963  -13.9405   53.6717 S   0  0  0  0  0  0  0  0  0  0  0  0
   81.8869  -14.4415   55.6008 S   0  0  0  0  0  0  0  0  0  0  0  0
   83.9961  -14.4381   55.5879 S   0  0  0  0  0  0  0  0  0  0  0  0
   84.6865  -14.9391   57.5169 S   0  0  0  0  0  0  0  0  0  0  0  0
   86.7954  -14.9357   57.5037 S   0  0  0  0  0  0  0  0  0  0  0  0
   87.4853  -15.4367   59.4324 S   0  0  0  0  0  0  0  0  0  0  0  0
   89.5934  -15.4331   59.4187 S   0  0  0  0  0  0  0  0  0  0  0  0
   90.2818  -15.9338   61.3465 S   0  0  0  0  0  0  0  0  0  0  0  0
   92.3879  -15.9298   61.3312 S   0  0  0  0  0  0  0  0  0  0  0  0
   93.0731  -16.4300   63.2571 S   0  0  0  0  0  0  0  0  0  0  0  0
   95.1749  -16.4250   63.2376 S   0  0  0  0  0  0  0  0  0  0  0  0
   95.8533  -16.9234   65.1595 S   0  0  0  0  0  0  0  0  0  0  0  0
   97.9461  -16.9190   65.1318 S   0  0  0  0  0  0  0  0  0  0  0  0
   98.6102  -17.4139   67.0478 S   0  0  0  0  0  0  0  0  0  0  0  0
  100.6871  -17.3594   67.0127 S   0  0  0  0  0  0  0  0  0  0  0  0
  101.3447  -17.9645   68.8813 S   0  0  0  0  0  0  0  0  0  0  0  0
  103.4081  -17.8562   68.8354 S   0  0  0  0  0  0  0  0  0  0  0  0
  104.0029  -19.3424   67.5462 S   0  0  0  0  0  0  0  0  0  0  0  0
   26.2939  -10.7102   25.1371 H   0  0  0  0  0  0  0  0  0  0  0  0
   26.6377   -9.8386   26.6383 H   0  0  0  0  0  0  0  0  0  0  0  0
   26.3328  -11.6018   26.6690 H   0  0  0  0  0  0  0  0  0  0  0  0
   28.5488  -10.3242   25.2898 H   0  0  0  0  0  0  0  0  0  0  0  0
   28.5066  -11.9449   27.7885 H   0  0  0  0  0  0  0  0  0  0  0  0
   28.7213  -10.1969   27.7887 H   0  0  0  0  0  0  0  0  0  0  0  0
   30.5937  -12.2783   26.5202 H   0  0  0  0  0  0  0  0  0  0  0  0
   30.8957  -11.4323   28.0231 H   0  0  0  0  0  0  0  0  0  0  0  0
   30.6921  -10.2998   25.3443 H   0  0  0  0  0  0  0  0  0  0  0  0
   31.2789   -9.1118   27.9468 H   0  0  0  0  0  0  0  0  0  0  0  0
   32.3491   -7.8933   26.1353 H   0  0  0  0  0  0  0  0  0  0  0  0
   30.8618   -8.4588   24.3608 H   0  0  0  0  0  0  0  0  0  0  0  0
   28.8743   -8.3503   25.7791 H   0  0  0  0  0  0  0  0  0  0  0  0
   29.4998   -6.5440   26.9093 H   0  0  0  0  0  0  0  0  0  0  0  0
   30.5452   -5.4680   25.2278 H   0  0  0  0  0  0  0  0  0  0  0  0
   29.1150   -6.0428   23.5135 H   0  0  0  0  0  0  0  0  0  0  0  0
   27.1002   -5.8428   24.6209 H   0  0  0  0  0  0  0  0  0  0  0  0
   27.5729   -3.9044   25.8616 H   0  0  0  0  0  0  0  0  0  0  0  0
   28.7401   -2.7126   24.2121 H   0  0  0  0  0  0  0  0  0  0  0  0
   27.3908   -3.1599   22.3505 H   0  0  0  0  0  0  0  0  0  0  0  0
   25.2633   -3.1207   23.3609 H   0  0  0  0  0  0  0  0  0  0  0  0
   26.8471    0.3271   23.2470 H   0  0  0  0  0  0  0  0  0  0  0  0
   25.5022   -1.4423   21.1084 H   0  0  0  0  0  0  0  0  0  0  0  0
   26.7752   -1.6079   18.1360 H   0  0  0  0  0  0  0  0  0  0  0  0
  105.3380  -19.2028   67.5982 H   0  0  0  0  0  0  0  0  0  0  0  0
  1  2  1  0  0  0  0
  1 82  1  0  0  0  0
  1 83  1  0  0  0  0
  1 84  1  0  0  0  0
  2  3  1  0  0  0  0
  2 85  1  0  0  0  0
  3  4  1  0  0  0  0
  3 86  1  0  0  0  0
  3 87  1  0  0  0  0
  4  5  1  0  0  0  0
  4 88  1  0  0  0  0
  4 89  1  0  0  0  0
  5  6  1  0  0  0  0
  5 90  1  0  0  0  0
  6  7  1  0  0  0  0
  6 91  1  0  0  0  0
  7  8  1  0  0  0  0
  7 92  1  0  0  0  0
  8  9  1  0  0  0  0
  8 93  1  0  0  0  0
  9 10  1  0  0  0  0
  9 94  1  0  0  0  0
 10 11  1  0  0  0  0
 10 95  1  0  0  0  0
 11 12  1  0  0  0  0
 11 96  1  0  0  0  0
 12 13  1  0  0  0  0
 12 97  1  0  0  0  0
 13 14  1  0  0  0  0
 13 98  1  0  0  0  0
 14 15  1  0  0  0  0
 14 99  1  0  0  0  0
 15 16  1  0  0  0  0
 15100  1  0  0  0  0
 16 17  1  0  0  0  0
 16101  1  0  0  0  0
 17 18  1  0  0  0  0
 17102  1  0  0  0  0
 18 19  1  0  0  0  0
 19 20  1  0  0  0  0
 19103  1  0  0  0  0
 20 21  1  0  0  0  0
 21 22  1  0  0  0  0
 21104  1  0  0  0  0
 22 23  1  0  0  0  0
 23 24  1  0  0  0  0
 23105  1  0  0  0  0
 24 25  1  0  0  0  0
 25 26  1  0  0  0  0
 26 27  1  0  0  0  0
 27 28  1  0  0  0  0
 28 29  1  0  0  0  0
 29 30  1  0  0  0  0
 30 31  1  0  0  0  0
 31 32  1  0  0  0  0
 32 33  1  0  0  0  0
 33 34  1  0  0  0  0
 34 35  1  0  0  0  0
 35 36  1  0  0  0  0
 36 37  1  0  0  0  0
 37 38  1  0  0  0  0
 38 39  1  0  0  0  0
 39 40  1  0  0  0  0
 40 41  1  0  0  0  0
 41 42  1  0  0  0  0
 42 43  1  0  0  0  0
 43 44  1  0  0  0  0
 44 45  1  0  0  0  0
 45 46  1  0  0  0  0
 46 47  1  0  0  0  0
 47 48  1  0  0  0  0
 48 49  1  0  0  0  0
 49 50  1  0  0  0  0
 50 51  1  0  0  0  0
 51 52  1  0  0  0  0
 52 53  1  0  0  0  0
 53 54  1  0  0  0  0
 54 55  1  0  0  0  0
 55 56  1  0  0  0  0
 56 57  1  0  0  0  0
 57 58  1  0  0  0  0
 58 59  1  0  0  0  0
 59 60  1  0  0  0  0
 60 61  1  0  0  0  0
 61 62  1  0  0  0  0
 62 63  1  0  0  0  0
 63 64  1  0  0  0  0
 64 65  1  0  0  0  0
 65 66  1  0  0  0  0
 66 67  1  0  0  0  0
 67 68  1  0  0  0  0
 68 69  1  0  0  0  0
 69 70  1  0  0  0  0
 70 71  1  0  0  0  0
 71 72  1  0  0  0  0
 72 73  1  0  0  0  0
 73 74  1  0  0  0  0
 74 75  1  0  0  0  0
 75 76  1  0  0  0  0
 76 77  1  0  0  0  0
 77 78  1  0  0  0  0
 78 79  1  0  0  0  0
 79 80  1  0  0  0  0
 80 81  1  0  0  0  0
 81106  1  0  0  0  0
M  END
$$$$
