
 OpenBabel04232216543D

210209  0  0  0  0  0  0  0  0999 V2000
    8.6977   -1.2494   -5.4412 C   0  0  0  0  0  0  0  0  0  0  0  0
    8.2051   -0.9360   -4.0444 C   0  0  0  0  0  0  0  0  0  0  0  0
    8.7150   -1.9783   -3.0585 C   0  0  0  0  0  0  0  0  0  0  0  0
    8.2226   -1.6721   -1.6481 C   0  0  0  0  0  0  0  0  0  0  0  0
    8.7250   -2.6842   -0.7373 N   0  0  0  0  0  0  0  0  0  0  0  0
    8.2559   -2.3789    0.5702 N   0  0  0  0  0  0  0  0  0  0  0  0
    8.7267   -3.3446    1.4700 N   0  0  0  0  0  0  0  0  0  0  0  0
    8.2754   -3.0630    2.7822 N   0  0  0  0  0  0  0  0  0  0  0  0
    8.7506   -4.0349    3.6975 N   0  0  0  0  0  0  0  0  0  0  0  0
   10.1734   -4.0392    3.7044 N   0  0  0  0  0  0  0  0  0  0  0  0
   10.6601   -5.0094    4.6176 N   0  0  0  0  0  0  0  0  0  0  0  0
   12.0685   -5.0115    4.6231 N   0  0  0  0  0  0  0  0  0  0  0  0
   12.5458   -5.9816    5.5344 N   0  0  0  0  0  0  0  0  0  0  0  0
   13.9524   -5.9784    5.5350 N   0  0  0  0  0  0  0  0  0  0  0  0
   14.4282   -6.9482    6.4457 N   0  0  0  0  0  0  0  0  0  0  0  0
   15.8506   -6.9590    6.4546 N   0  0  0  0  0  0  0  0  0  0  0  0
   16.3179   -7.9284    7.3604 N   0  0  0  0  0  0  0  0  0  0  0  0
   17.7428   -7.9403    7.3749 N   0  0  0  0  0  0  0  0  0  0  0  0
   18.2144   -8.9112    8.2817 N   0  0  0  0  0  0  0  0  0  0  0  0
   19.6377   -8.9160    8.2861 N   0  0  0  0  0  0  0  0  0  0  0  0
   20.1240   -9.8883    9.1970 N   0  0  0  0  0  0  0  0  0  0  0  0
   21.5471   -9.9011    9.2105 N   0  0  0  0  0  0  0  0  0  0  0  0
   21.9962  -10.8679   10.1112 N   0  0  0  0  0  0  0  0  0  0  0  0
   23.4153  -10.8672   10.1120 N   0  0  0  0  0  0  0  0  0  0  0  0
   23.8999  -11.8381   11.0195 N   0  0  0  0  0  0  0  0  0  0  0  0
   25.3215  -11.8511   11.0277 N   0  0  0  0  0  0  0  0  0  0  0  0
   25.7886  -12.8224   11.9346 N   0  0  0  0  0  0  0  0  0  0  0  0
   27.2115  -12.8365   11.9440 N   0  0  0  0  0  0  0  0  0  0  0  0
   27.6910  -13.8107   12.8543 N   0  0  0  0  0  0  0  0  0  0  0  0
   29.1039  -13.8159   12.8553 N   0  0  0  0  0  0  0  0  0  0  0  0
   29.6016  -14.7933   13.7677 N   0  0  0  0  0  0  0  0  0  0  0  0
   31.0041  -14.7870   13.7597 N   0  0  0  0  0  0  0  0  0  0  0  0
   31.4835  -15.7620   14.6702 N   0  0  0  0  0  0  0  0  0  0  0  0
   32.8968  -15.7765   14.6771 N   0  0  0  0  0  0  0  0  0  0  0  0
   33.3692  -16.7490   15.5848 N   0  0  0  0  0  0  0  0  0  0  0  0
   34.7853  -16.7514   15.5847 N   0  0  0  0  0  0  0  0  0  0  0  0
   35.2605  -17.7220   16.4934 N   0  0  0  0  0  0  0  0  0  0  0  0
   36.6899  -17.7387   16.5042 N   0  0  0  0  0  0  0  0  0  0  0  0
   37.1549  -18.7233   17.4277 N   0  0  0  0  0  0  0  0  0  0  0  0
   38.6107  -18.7047   17.4083 C   0  0  0  0  0  0  0  0  0  0  0  0
   39.1260  -19.7492   18.3851 C   0  0  0  0  0  0  0  0  0  0  0  0
   40.6446  -19.7569   18.3923 C   0  0  0  0  0  0  0  0  0  0  0  0
   41.1588  -20.7985   19.3670 C   0  0  0  0  0  0  0  0  0  0  0  0
   42.6745  -20.8042   19.3723 C   0  0  0  0  0  0  0  0  0  0  0  0
   43.1866  -21.8456   20.3468 C   0  0  0  0  0  0  0  0  0  0  0  0
   44.7017  -21.8509   20.3518 C   0  0  0  0  0  0  0  0  0  0  0  0
   45.2135  -22.8921   21.3261 C   0  0  0  0  0  0  0  0  0  0  0  0
   46.7285  -22.8973   21.3309 C   0  0  0  0  0  0  0  0  0  0  0  0
   47.2402  -23.9385   22.3052 C   0  0  0  0  0  0  0  0  0  0  0  0
   48.7551  -23.9423   22.3116 C   0  0  0  0  0  0  0  0  0  0  0  0
   49.2668  -24.9835   23.2859 C   0  0  0  0  0  0  0  0  0  0  0  0
   50.7818  -24.9860   23.2937 C   0  0  0  0  0  0  0  0  0  0  0  0
   51.2935  -26.0285   24.2665 C   0  0  0  0  0  0  0  0  0  0  0  0
   52.8084  -26.0324   24.2728 C   0  0  0  0  0  0  0  0  0  0  0  0
   53.3201  -27.0736   25.2471 C   0  0  0  0  0  0  0  0  0  0  0  0
   54.8351  -27.0760   25.2549 C   0  0  0  0  0  0  0  0  0  0  0  0
   55.3468  -28.1186   26.2278 C   0  0  0  0  0  0  0  0  0  0  0  0
   56.8618  -28.1224   26.2341 C   0  0  0  0  0  0  0  0  0  0  0  0
   57.3735  -29.1650   27.2069 C   0  0  0  0  0  0  0  0  0  0  0  0
   58.8884  -29.1701   27.2118 C   0  0  0  0  0  0  0  0  0  0  0  0
   59.4001  -30.2127   28.1846 C   0  0  0  0  0  0  0  0  0  0  0  0
   60.9151  -30.2179   28.1895 C   0  0  0  0  0  0  0  0  0  0  0  0
   61.4268  -31.2605   29.1623 C   0  0  0  0  0  0  0  0  0  0  0  0
   62.9418  -31.2657   29.1671 C   0  0  0  0  0  0  0  0  0  0  0  0
   63.4535  -32.3082   30.1400 C   0  0  0  0  0  0  0  0  0  0  0  0
   64.9684  -32.3134   30.1448 C   0  0  0  0  0  0  0  0  0  0  0  0
   65.4801  -33.3560   31.1176 C   0  0  0  0  0  0  0  0  0  0  0  0
   66.9951  -33.3612   31.1225 C   0  0  0  0  0  0  0  0  0  0  0  0
   67.5068  -34.4038   32.0953 C   0  0  0  0  0  0  0  0  0  0  0  0
   69.0218  -34.4076   32.1016 C   0  0  0  0  0  0  0  0  0  0  0  0
   69.5335  -35.4501   33.0745 C   0  0  0  0  0  0  0  0  0  0  0  0
   71.0485  -35.4540   33.0808 C   0  0  0  0  0  0  0  0  0  0  0  0
   71.5602  -36.4965   34.0536 C   0  0  0  0  0  0  0  0  0  0  0  0
   73.0751  -36.5003   34.0600 C   0  0  0  0  0  0  0  0  0  0  0  0
   73.5868  -37.5429   35.0328 C   0  0  0  0  0  0  0  0  0  0  0  0
   75.1018  -37.5481   35.0376 C   0  0  0  0  0  0  0  0  0  0  0  0
   75.6135  -38.5906   36.0104 C   0  0  0  0  0  0  0  0  0  0  0  0
   77.1287  -38.5955   36.0150 C   0  0  0  0  0  0  0  0  0  0  0  0
   77.6410  -39.6368   36.9893 C   0  0  0  0  0  0  0  0  0  0  0  0
   79.1579  -39.6456   36.9949 C   0  0  0  0  0  0  0  0  0  0  0  0
   79.6652  -40.6853   37.9677 C   0  0  0  0  0  0  0  0  0  0  0  0
    8.3317   -0.5010   -6.1485 H   0  0  0  0  0  0  0  0  0  0  0  0
    8.3406   -2.2341   -5.7581 H   0  0  0  0  0  0  0  0  0  0  0  0
    9.7917   -1.2494   -5.4673 H   0  0  0  0  0  0  0  0  0  0  0  0
    7.1098   -0.9240   -4.0396 H   0  0  0  0  0  0  0  0  0  0  0  0
    8.5576    0.0583   -3.7495 H   0  0  0  0  0  0  0  0  0  0  0  0
    9.8118   -1.9862   -3.0801 H   0  0  0  0  0  0  0  0  0  0  0  0
    8.3651   -2.9701   -3.3712 H   0  0  0  0  0  0  0  0  0  0  0  0
    7.1258   -1.6671   -1.6573 H   0  0  0  0  0  0  0  0  0  0  0  0
    8.5713   -0.6717   -1.3644 H   0  0  0  0  0  0  0  0  0  0  0  0
    9.7434   -2.6519   -0.7414 H   0  0  0  0  0  0  0  0  0  0  0  0
    7.2387   -2.4073    0.5984 H   0  0  0  0  0  0  0  0  0  0  0  0
    9.7492   -3.3394    1.4758 H   0  0  0  0  0  0  0  0  0  0  0  0
    7.2514   -3.0552    2.7857 H   0  0  0  0  0  0  0  0  0  0  0  0
    8.4282   -4.9653    3.4247 H   0  0  0  0  0  0  0  0  0  0  0  0
   10.5165   -3.1243    3.9871 H   0  0  0  0  0  0  0  0  0  0  0  0
   10.3165   -5.9244    4.3317 H   0  0  0  0  0  0  0  0  0  0  0  0
   12.3981   -4.0920    4.9106 H   0  0  0  0  0  0  0  0  0  0  0  0
   12.2151   -6.9033    5.2592 H   0  0  0  0  0  0  0  0  0  0  0  0
   14.2528   -5.0369    5.7957 H   0  0  0  0  0  0  0  0  0  0  0  0
   14.0903   -7.8794    6.1779 H   0  0  0  0  0  0  0  0  0  0  0  0
   16.2186   -6.0516    6.7481 H   0  0  0  0  0  0  0  0  0  0  0  0
   15.9941   -8.8553    7.0884 H   0  0  0  0  0  0  0  0  0  0  0  0
   18.0919   -7.0261    7.6595 H   0  0  0  0  0  0  0  0  0  0  0  0
   17.8826   -9.8315    7.9975 H   0  0  0  0  0  0  0  0  0  0  0  0
   19.9617   -7.9849    8.5561 H   0  0  0  0  0  0  0  0  0  0  0  0
   19.7930  -10.8182    8.9257 H   0  0  0  0  0  0  0  0  0  0  0  0
   21.9035   -8.9954    9.5079 H   0  0  0  0  0  0  0  0  0  0  0  0
   21.6257  -11.7720    9.8174 H   0  0  0  0  0  0  0  0  0  0  0  0
   23.7296   -9.9201   10.3642 H   0  0  0  0  0  0  0  0  0  0  0  0
   23.5756  -12.7721   10.7559 H   0  0  0  0  0  0  0  0  0  0  0  0
   25.6815  -10.9435   11.3188 H   0  0  0  0  0  0  0  0  0  0  0  0
   25.4521  -13.7398   11.6492 H   0  0  0  0  0  0  0  0  0  0  0  0
   27.5559  -11.9198   12.2271 H   0  0  0  0  0  0  0  0  0  0  0  0
   27.3566  -14.7298   12.5681 H   0  0  0  0  0  0  0  0  0  0  0  0
   29.4482  -12.8981   13.1351 H   0  0  0  0  0  0  0  0  0  0  0  0
   29.2579  -15.7097   13.4844 H   0  0  0  0  0  0  0  0  0  0  0  0
   31.3409  -13.8727   14.0564 H   0  0  0  0  0  0  0  0  0  0  0  0
   31.1341  -16.6741   14.3843 H   0  0  0  0  0  0  0  0  0  0  0  0
   33.2312  -14.8601   14.9646 H   0  0  0  0  0  0  0  0  0  0  0  0
   32.9980  -17.6544   15.2945 H   0  0  0  0  0  0  0  0  0  0  0  0
   35.1066  -15.8101   15.8411 H   0  0  0  0  0  0  0  0  0  0  0  0
   34.9066  -18.6496   16.2339 H   0  0  0  0  0  0  0  0  0  0  0  0
   37.0570  -16.8186   16.7802 H   0  0  0  0  0  0  0  0  0  0  0  0
   36.8348  -19.6516   17.1457 H   0  0  0  0  0  0  0  0  0  0  0  0
   38.9873  -17.7203   17.7084 H   0  0  0  0  0  0  0  0  0  0  0  0
   38.9899  -18.9322   16.4049 H   0  0  0  0  0  0  0  0  0  0  0  0
   38.7602  -20.7427   18.0997 H   0  0  0  0  0  0  0  0  0  0  0  0
   38.7595  -19.5306   19.3952 H   0  0  0  0  0  0  0  0  0  0  0  0
   41.0193  -18.7680   18.6810 H   0  0  0  0  0  0  0  0  0  0  0  0
   41.0191  -19.9796   17.3865 H   0  0  0  0  0  0  0  0  0  0  0  0
   40.7879  -21.7891   19.0797 H   0  0  0  0  0  0  0  0  0  0  0  0
   40.7879  -20.5775   20.3745 H   0  0  0  0  0  0  0  0  0  0  0  0
   43.0471  -19.8144   19.6605 H   0  0  0  0  0  0  0  0  0  0  0  0
   43.0471  -21.0261   18.3656 H   0  0  0  0  0  0  0  0  0  0  0  0
   42.8147  -22.8358   20.0590 H   0  0  0  0  0  0  0  0  0  0  0  0
   42.8147  -21.6241   21.3539 H   0  0  0  0  0  0  0  0  0  0  0  0
   45.0739  -20.8608   20.6397 H   0  0  0  0  0  0  0  0  0  0  0  0
   45.0739  -22.0725   19.3448 H   0  0  0  0  0  0  0  0  0  0  0  0
   44.8414  -23.8822   21.0382 H   0  0  0  0  0  0  0  0  0  0  0  0
   44.8414  -22.6705   22.3331 H   0  0  0  0  0  0  0  0  0  0  0  0
   47.1006  -21.9072   21.6188 H   0  0  0  0  0  0  0  0  0  0  0  0
   47.1006  -23.1189   20.3239 H   0  0  0  0  0  0  0  0  0  0  0  0
   46.8692  -24.9288   22.0165 H   0  0  0  0  0  0  0  0  0  0  0  0
   46.8669  -23.7177   23.3120 H   0  0  0  0  0  0  0  0  0  0  0  0
   49.1261  -22.9520   22.6003 H   0  0  0  0  0  0  0  0  0  0  0  0
   49.1284  -24.1631   21.3048 H   0  0  0  0  0  0  0  0  0  0  0  0
   48.8971  -25.9740   22.9963 H   0  0  0  0  0  0  0  0  0  0  0  0
   48.8924  -24.7636   24.2924 H   0  0  0  0  0  0  0  0  0  0  0  0
   51.1515  -23.9959   23.5846 H   0  0  0  0  0  0  0  0  0  0  0  0
   51.1563  -25.2045   22.2869 H   0  0  0  0  0  0  0  0  0  0  0  0
   50.9226  -27.0185   23.9764 H   0  0  0  0  0  0  0  0  0  0  0  0
   50.9202  -25.8092   25.2736 H   0  0  0  0  0  0  0  0  0  0  0  0
   53.1794  -25.0420   24.5616 H   0  0  0  0  0  0  0  0  0  0  0  0
   53.1817  -26.2531   23.2661 H   0  0  0  0  0  0  0  0  0  0  0  0
   52.9504  -28.0641   24.9576 H   0  0  0  0  0  0  0  0  0  0  0  0
   52.9457  -26.8536   26.2536 H   0  0  0  0  0  0  0  0  0  0  0  0
   55.2049  -26.0859   25.5459 H   0  0  0  0  0  0  0  0  0  0  0  0
   55.2096  -27.2945   24.2481 H   0  0  0  0  0  0  0  0  0  0  0  0
   54.9759  -29.1085   25.9376 H   0  0  0  0  0  0  0  0  0  0  0  0
   54.9735  -27.8992   27.2348 H   0  0  0  0  0  0  0  0  0  0  0  0
   57.2327  -27.1325   26.5242 H   0  0  0  0  0  0  0  0  0  0  0  0
   57.2351  -28.3417   25.2270 H   0  0  0  0  0  0  0  0  0  0  0  0
   57.0014  -30.1547   26.9176 H   0  0  0  0  0  0  0  0  0  0  0  0
   57.0013  -28.9448   28.2142 H   0  0  0  0  0  0  0  0  0  0  0  0
   59.2605  -28.1804   27.5011 H   0  0  0  0  0  0  0  0  0  0  0  0
   59.2606  -29.3903   26.2044 H   0  0  0  0  0  0  0  0  0  0  0  0
   59.0280  -31.2024   27.8953 H   0  0  0  0  0  0  0  0  0  0  0  0
   59.0280  -29.9925   29.1919 H   0  0  0  0  0  0  0  0  0  0  0  0
   61.2872  -29.2282   28.4787 H   0  0  0  0  0  0  0  0  0  0  0  0
   61.2872  -30.4381   27.1821 H   0  0  0  0  0  0  0  0  0  0  0  0
   61.0547  -32.2502   28.8730 H   0  0  0  0  0  0  0  0  0  0  0  0
   61.0547  -31.0403   30.1696 H   0  0  0  0  0  0  0  0  0  0  0  0
   63.3139  -30.2760   29.4564 H   0  0  0  0  0  0  0  0  0  0  0  0
   63.3139  -31.4858   28.1598 H   0  0  0  0  0  0  0  0  0  0  0  0
   63.0814  -33.2979   29.8507 H   0  0  0  0  0  0  0  0  0  0  0  0
   63.0814  -32.0881   31.1473 H   0  0  0  0  0  0  0  0  0  0  0  0
   65.3406  -31.3237   30.4341 H   0  0  0  0  0  0  0  0  0  0  0  0
   65.3406  -32.5336   29.1375 H   0  0  0  0  0  0  0  0  0  0  0  0
   65.1080  -34.3457   30.8283 H   0  0  0  0  0  0  0  0  0  0  0  0
   65.1080  -33.1358   32.1250 H   0  0  0  0  0  0  0  0  0  0  0  0
   67.3672  -32.3715   31.4118 H   0  0  0  0  0  0  0  0  0  0  0  0
   67.3672  -33.5814   30.1152 H   0  0  0  0  0  0  0  0  0  0  0  0
   67.1359  -35.3937   31.8052 H   0  0  0  0  0  0  0  0  0  0  0  0
   67.1335  -34.1844   33.1024 H   0  0  0  0  0  0  0  0  0  0  0  0
   69.3927  -33.4177   32.3918 H   0  0  0  0  0  0  0  0  0  0  0  0
   69.3951  -34.6269   31.0946 H   0  0  0  0  0  0  0  0  0  0  0  0
   69.1626  -36.4400   32.7843 H   0  0  0  0  0  0  0  0  0  0  0  0
   69.1602  -35.2308   34.0816 H   0  0  0  0  0  0  0  0  0  0  0  0
   71.4194  -34.4641   33.3709 H   0  0  0  0  0  0  0  0  0  0  0  0
   71.4218  -35.6733   32.0737 H   0  0  0  0  0  0  0  0  0  0  0  0
   71.1892  -37.4864   33.7635 H   0  0  0  0  0  0  0  0  0  0  0  0
   71.1869  -36.2772   35.0607 H   0  0  0  0  0  0  0  0  0  0  0  0
   73.4461  -35.5104   34.3501 H   0  0  0  0  0  0  0  0  0  0  0  0
   73.4484  -36.7197   33.0529 H   0  0  0  0  0  0  0  0  0  0  0  0
   73.2147  -38.5326   34.7435 H   0  0  0  0  0  0  0  0  0  0  0  0
   73.2147  -37.3227   36.0401 H   0  0  0  0  0  0  0  0  0  0  0  0
   75.4739  -36.5584   35.3269 H   0  0  0  0  0  0  0  0  0  0  0  0
   75.4739  -37.7683   34.0303 H   0  0  0  0  0  0  0  0  0  0  0  0
   75.2414  -39.5804   35.7212 H   0  0  0  0  0  0  0  0  0  0  0  0
   75.2414  -38.3705   37.0178 H   0  0  0  0  0  0  0  0  0  0  0  0
   77.5007  -37.6055   36.3031 H   0  0  0  0  0  0  0  0  0  0  0  0
   77.5007  -38.8173   35.0080 H   0  0  0  0  0  0  0  0  0  0  0  0
   77.2669  -40.6266   36.7024 H   0  0  0  0  0  0  0  0  0  0  0  0
   77.2692  -39.4144   37.9965 H   0  0  0  0  0  0  0  0  0  0  0  0
   79.5329  -38.6580   37.2839 H   0  0  0  0  0  0  0  0  0  0  0  0
   79.5305  -39.8701   35.9897 H   0  0  0  0  0  0  0  0  0  0  0  0
   79.3102  -40.4637   38.9789 H   0  0  0  0  0  0  0  0  0  0  0  0
   80.7573  -40.6935   37.9735 H   0  0  0  0  0  0  0  0  0  0  0  0
   79.3079  -41.6791   37.6812 H   0  0  0  0  0  0  0  0  0  0  0  0
  1  2  1  0  0  0  0
  1 82  1  0  0  0  0
  1 83  1  0  0  0  0
  1 84  1  0  0  0  0
  2  3  1  0  0  0  0
  2 85  1  0  0  0  0
  2 86  1  0  0  0  0
  3  4  1  0  0  0  0
  3 87  1  0  0  0  0
  3 88  1  0  0  0  0
  4  5  1  0  0  0  0
  4 89  1  0  0  0  0
  4 90  1  0  0  0  0
  5  6  1  0  0  0  0
  5 91  1  0  0  0  0
  6  7  1  0  0  0  0
  6 92  1  0  0  0  0
  7  8  1  0  0  0  0
  7 93  1  0  0  0  0
  8  9  1  0  0  0  0
  8 94  1  0  0  0  0
  9 10  1  0  0  0  0
  9 95  1  0  0  0  0
 10 11  1  0  0  0  0
 10 96  1  0  0  0  0
 11 12  1  0  0  0  0
 11 97  1  0  0  0  0
 12 13  1  0  0  0  0
 12 98  1  0  0  0  0
 13 14  1  0  0  0  0
 13 99  1  0  0  0  0
 14 15  1  0  0  0  0
 14100  1  0  0  0  0
 15 16  1  0  0  0  0
 15101  1  0  0  0  0
 16 17  1  0  0  0  0
 16102  1  0  0  0  0
 17 18  1  0  0  0  0
 17103  1  0  0  0  0
 18 19  1  0  0  0  0
 18104  1  0  0  0  0
 19 20  1  0  0  0  0
 19105  1  0  0  0  0
 20 21  1  0  0  0  0
 20106  1  0  0  0  0
 21 22  1  0  0  0  0
 21107  1  0  0  0  0
 22 23  1  0  0  0  0
 22108  1  0  0  0  0
 23 24  1  0  0  0  0
 23109  1  0  0  0  0
 24 25  1  0  0  0  0
 24110  1  0  0  0  0
 25 26  1  0  0  0  0
 25111  1  0  0  0  0
 26 27  1  0  0  0  0
 26112  1  0  0  0  0
 27 28  1  0  0  0  0
 27113  1  0  0  0  0
 28 29  1  0  0  0  0
 28114  1  0  0  0  0
 29 30  1  0  0  0  0
 29115  1  0  0  0  0
 30 31  1  0  0  0  0
 30116  1  0  0  0  0
 31 32  1  0  0  0  0
 31117  1  0  0  0  0
 32 33  1  0  0  0  0
 32118  1  0  0  0  0
 33 34  1  0  0  0  0
 33119  1  0  0  0  0
 34 35  1  0  0  0  0
 34120  1  0  0  0  0
 35 36  1  0  0  0  0
 35121  1  0  0  0  0
 36 37  1  0  0  0  0
 36122  1  0  0  0  0
 37 38  1  0  0  0  0
 37123  1  0  0  0  0
 38 39  1  0  0  0  0
 38124  1  0  0  0  0
 39 40  1  0  0  0  0
 39125  1  0  0  0  0
 40 41  1  0  0  0  0
 40126  1  0  0  0  0
 40127  1  0  0  0  0
 41 42  1  0  0  0  0
 41128  1  0  0  0  0
 41129  1  0  0  0  0
 42 43  1  0  0  0  0
 42130  1  0  0  0  0
 42131  1  0  0  0  0
 43 44  1  0  0  0  0
 43132  1  0  0  0  0
 43133  1  0  0  0  0
 44 45  1  0  0  0  0
 44134  1  0  0  0  0
 44135  1  0  0  0  0
 45 46  1  0  0  0  0
 45136  1  0  0  0  0
 45137  1  0  0  0  0
 46 47  1  0  0  0  0
 46138  1  0  0  0  0
 46139  1  0  0  0  0
 47 48  1  0  0  0  0
 47140  1  0  0  0  0
 47141  1  0  0  0  0
 48 49  1  0  0  0  0
 48142  1  0  0  0  0
 48143  1  0  0  0  0
 49 50  1  0  0  0  0
 49144  1  0  0  0  0
 49145  1  0  0  0  0
 50 51  1  0  0  0  0
 50146  1  0  0  0  0
 50147  1  0  0  0  0
 51 52  1  0  0  0  0
 51148  1  0  0  0  0
 51149  1  0  0  0  0
 52 53  1  0  0  0  0
 52150  1  0  0  0  0
 52151  1  0  0  0  0
 53 54  1  0  0  0  0
 53152  1  0  0  0  0
 53153  1  0  0  0  0
 54 55  1  0  0  0  0
 54154  1  0  0  0  0
 54155  1  0  0  0  0
 55 56  1  0  0  0  0
 55156  1  0  0  0  0
 55157  1  0  0  0  0
 56 57  1  0  0  0  0
 56158  1  0  0  0  0
 56159  1  0  0  0  0
 57 58  1  0  0  0  0
 57160  1  0  0  0  0
 57161  1  0  0  0  0
 58 59  1  0  0  0  0
 58162  1  0  0  0  0
 58163  1  0  0  0  0
 59 60  1  0  0  0  0
 59164  1  0  0  0  0
 59165  1  0  0  0  0
 60 61  1  0  0  0  0
 60166  1  0  0  0  0
 60167  1  0  0  0  0
 61 62  1  0  0  0  0
 61168  1  0  0  0  0
 61169  1  0  0  0  0
 62 63  1  0  0  0  0
 62170  1  0  0  0  0
 62171  1  0  0  0  0
 63 64  1  0  0  0  0
 63172  1  0  0  0  0
 63173  1  0  0  0  0
 64 65  1  0  0  0  0
 64174  1  0  0  0  0
 64175  1  0  0  0  0
 65 66  1  0  0  0  0
 65176  1  0  0  0  0
 65177  1  0  0  0  0
 66 67  1  0  0  0  0
 66178  1  0  0  0  0
 66179  1  0  0  0  0
 67 68  1  0  0  0  0
 67180  1  0  0  0  0
 67181  1  0  0  0  0
 68 69  1  0  0  0  0
 68182  1  0  0  0  0
 68183  1  0  0  0  0
 69 70  1  0  0  0  0
 69184  1  0  0  0  0
 69185  1  0  0  0  0
 70 71  1  0  0  0  0
 70186  1  0  0  0  0
 70187  1  0  0  0  0
 71 72  1  0  0  0  0
 71188  1  0  0  0  0
 71189  1  0  0  0  0
 72 73  1  0  0  0  0
 72190  1  0  0  0  0
 72191  1  0  0  0  0
 73 74  1  0  0  0  0
 73192  1  0  0  0  0
 73193  1  0  0  0  0
 74 75  1  0  0  0  0
 74194  1  0  0  0  0
 74195  1  0  0  0  0
 75 76  1  0  0  0  0
 75196  1  0  0  0  0
 75197  1  0  0  0  0
 76 77  1  0  0  0  0
 76198  1  0  0  0  0
 76199  1  0  0  0  0
 77 78  1  0  0  0  0
 77200  1  0  0  0  0
 77201  1  0  0  0  0
 78 79  1  0  0  0  0
 78202  1  0  0  0  0
 78203  1  0  0  0  0
 79 80  1  0  0  0  0
 79204  1  0  0  0  0
 79205  1  0  0  0  0
 80 81  1  0  0  0  0
 80206  1  0  0  0  0
 80207  1  0  0  0  0
 81208  1  0  0  0  0
 81209  1  0  0  0  0
 81210  1  0  0  0  0
M  END
$$$$
