
 OpenBabel04232216483D

 71 72  0  0  0  0  0  0  0  0999 V2000
    0.9580   -0.5155   -0.5385 C   0  0  0  0  0  0  0  0  0  0  0  0
    1.9216   -1.5861   -1.0970 C   0  0  0  0  0  0  0  0  0  0  0  0
    1.9282   -1.7266   -2.7826 C   0  0  0  0  0  0  0  0  0  0  0  0
    1.8954   -2.7643   -3.7532 C   0  0  0  0  0  0  0  0  0  0  0  0
    2.0170   -4.3414   -3.5783 C   0  0  0  0  0  0  0  0  0  0  0  0
    1.7609   -5.7672   -4.4519 N   0  0  0  0  0  0  0  0  0  0  0  0
    1.5452   -6.3798   -6.1082 C   0  0  0  0  0  0  0  0  0  0  0  0
    1.5319   -8.2338   -6.5672 C   0  0  0  0  0  0  0  0  0  0  0  0
    0.7865   -9.1545   -8.0076 C   0  0  0  0  0  0  0  0  0  0  0  0
    0.9392  -10.7940   -8.8930 C   0  0  0  0  0  0  0  0  0  0  0  0
    0.0986  -12.3316   -8.8761 C   0  0  0  0  0  0  0  0  0  0  0  0
   -0.1076  -13.4836  -10.1356 C   0  0  0  0  0  0  0  0  0  0  0  0
    0.8805  -14.5216  -10.8332 C   0  0  0  0  0  0  0  0  0  0  0  0
    1.6728  -15.5816  -10.0345 C   0  0  0  0  0  0  0  0  0  0  0  0
    0.8962  -16.7914   -9.4904 C   0  0  0  0  0  0  0  0  0  0  0  0
    1.7680  -17.6054   -8.5187 C   0  0  0  0  0  0  0  0  0  0  0  0
    2.4725   -4.4461   -2.2701 C   0  0  0  0  0  0  0  0  0  0  0  0
    3.5774   -3.5401   -1.7677 C   0  0  0  0  0  0  0  0  0  0  0  0
    3.6996   -2.9365   -0.5876 C   0  0  0  0  0  0  0  0  0  0  0  0
    5.0649   -2.8770    0.1276 C   0  0  0  0  0  0  0  0  0  0  0  0
    5.8040   -4.2287   -0.0440 C   0  0  0  0  0  0  0  0  0  0  0  0
    5.6546   -5.1515    0.7802 O   0  0  0  0  0  0  0  0  0  0  0  0
    6.5617   -4.5108   -1.3679 C   0  0  0  0  0  0  0  0  0  0  0  0
    5.6536   -5.2610   -2.3189 C   0  0  0  0  0  0  0  0  0  0  0  0
    5.6773   -6.6918   -2.9036 C   0  0  0  0  0  0  0  0  0  0  0  0
    4.1669   -6.8681   -3.0959 C   0  0  0  0  0  0  0  0  0  0  0  0
    3.2106   -7.7745   -3.8091 C   0  0  0  0  0  0  0  0  0  0  0  0
    1.8350   -7.0393   -3.6279 C   0  0  0  0  0  0  0  0  0  0  0  0
    2.6583   -2.1715   -0.2177 N   0  0  0  0  0  0  0  0  0  0  0  0
    1.1133    0.4855   -0.9728 H   0  0  0  0  0  0  0  0  0  0  0  0
    1.1597   -0.4049    0.5780 H   0  0  0  0  0  0  0  0  0  0  0  0
   -0.0852   -0.8093   -0.6814 H   0  0  0  0  0  0  0  0  0  0  0  0
    2.0655   -0.7002   -3.1388 H   0  0  0  0  0  0  0  0  0  0  0  0
    2.1713   -2.4169   -4.7833 H   0  0  0  0  0  0  0  0  0  0  0  0
    2.4040   -5.9630   -6.6489 H   0  0  0  0  0  0  0  0  0  0  0  0
    0.6000   -5.9532   -6.4456 H   0  0  0  0  0  0  0  0  0  0  0  0
    1.1461   -8.7675   -5.6960 H   0  0  0  0  0  0  0  0  0  0  0  0
    2.5985   -8.4687   -6.6819 H   0  0  0  0  0  0  0  0  0  0  0  0
    1.1887   -8.5324   -8.8200 H   0  0  0  0  0  0  0  0  0  0  0  0
   -0.2918   -8.9793   -7.9501 H   0  0  0  0  0  0  0  0  0  0  0  0
    2.0018  -11.0363   -8.9936 H   0  0  0  0  0  0  0  0  0  0  0  0
    0.6082  -10.4709   -9.8959 H   0  0  0  0  0  0  0  0  0  0  0  0
   -0.9531  -12.0721   -8.6831 H   0  0  0  0  0  0  0  0  0  0  0  0
    0.4531  -12.9274   -8.0293 H   0  0  0  0  0  0  0  0  0  0  0  0
   -0.6112  -12.9754  -10.9741 H   0  0  0  0  0  0  0  0  0  0  0  0
   -0.8925  -14.1651   -9.7527 H   0  0  0  0  0  0  0  0  0  0  0  0
    1.5838  -13.9739  -11.4710 H   0  0  0  0  0  0  0  0  0  0  0  0
    0.2832  -15.1128  -11.5629 H   0  0  0  0  0  0  0  0  0  0  0  0
    2.2030  -15.0762   -9.2262 H   0  0  0  0  0  0  0  0  0  0  0  0
    2.4450  -16.0011  -10.7016 H   0  0  0  0  0  0  0  0  0  0  0  0
    0.5841  -17.4693  -10.3023 H   0  0  0  0  0  0  0  0  0  0  0  0
   -0.0056  -16.4742   -8.9680 H   0  0  0  0  0  0  0  0  0  0  0  0
    2.6341  -18.0432   -9.0309 H   0  0  0  0  0  0  0  0  0  0  0  0
    1.1980  -18.4258   -8.0680 H   0  0  0  0  0  0  0  0  0  0  0  0
    2.1357  -16.9732   -7.7043 H   0  0  0  0  0  0  0  0  0  0  0  0
    1.6698   -4.3820   -1.5161 H   0  0  0  0  0  0  0  0  0  0  0  0
    4.3255   -3.1830   -2.4855 H   0  0  0  0  0  0  0  0  0  0  0  0
    4.9434   -2.7337    1.2109 H   0  0  0  0  0  0  0  0  0  0  0  0
    5.7268   -2.0729   -0.2118 H   0  0  0  0  0  0  0  0  0  0  0  0
    7.4917   -5.0398   -1.1781 H   0  0  0  0  0  0  0  0  0  0  0  0
    6.7873   -3.5252   -1.7953 H   0  0  0  0  0  0  0  0  0  0  0  0
    5.4530   -4.5986   -3.1747 H   0  0  0  0  0  0  0  0  0  0  0  0
    4.7768   -5.3386   -1.6930 H   0  0  0  0  0  0  0  0  0  0  0  0
    6.1035   -7.4051   -2.2061 H   0  0  0  0  0  0  0  0  0  0  0  0
    6.2170   -6.6895   -3.8552 H   0  0  0  0  0  0  0  0  0  0  0  0
    3.9515   -5.9449   -3.6342 H   0  0  0  0  0  0  0  0  0  0  0  0
    3.7518   -6.8603   -2.0810 H   0  0  0  0  0  0  0  0  0  0  0  0
    3.1573   -8.7662   -3.3496 H   0  0  0  0  0  0  0  0  0  0  0  0
    3.5031   -7.8818   -4.8537 H   0  0  0  0  0  0  0  0  0  0  0  0
    0.9894   -7.6674   -3.9371 H   0  0  0  0  0  0  0  0  0  0  0  0
    1.6290   -6.8104   -2.5802 H   0  0  0  0  0  0  0  0  0  0  0  0
  1  2  1  0  0  0  0
  1 30  1  0  0  0  0
  1 31  1  0  0  0  0
  1 32  1  0  0  0  0
  2  3  1  0  0  0  0
  2 29  2  0  0  0  0
  3  4  2  0  0  0  0
  3 33  1  0  0  0  0
  4  5  1  0  0  0  0
  4 34  1  0  0  0  0
  5  6  1  0  0  0  0
  5 17  2  0  0  0  0
  6  7  1  0  0  0  0
  6 28  1  0  0  0  0
  7  8  1  0  0  0  0
  7 35  1  0  0  0  0
  7 36  1  0  0  0  0
  8  9  1  0  0  0  0
  8 37  1  0  0  0  0
  8 38  1  0  0  0  0
  9 10  1  0  0  0  0
  9 39  1  0  0  0  0
  9 40  1  0  0  0  0
 10 11  1  0  0  0  0
 10 41  1  0  0  0  0
 10 42  1  0  0  0  0
 11 12  1  0  0  0  0
 11 43  1  0  0  0  0
 11 44  1  0  0  0  0
 12 13  1  0  0  0  0
 12 45  1  0  0  0  0
 12 46  1  0  0  0  0
 13 14  1  0  0  0  0
 13 47  1  0  0  0  0
 13 48  1  0  0  0  0
 14 15  1  0  0  0  0
 14 49  1  0  0  0  0
 14 50  1  0  0  0  0
 15 16  1  0  0  0  0
 15 51  1  0  0  0  0
 15 52  1  0  0  0  0
 16 53  1  0  0  0  0
 16 54  1  0  0  0  0
 16 55  1  0  0  0  0
 17 18  1  0  0  0  0
 17 56  1  0  0  0  0
 18 19  2  0  0  0  0
 18 57  1  0  0  0  0
 19 20  1  0  0  0  0
 19 29  1  0  0  0  0
 20 21  1  0  0  0  0
 20 58  1  0  0  0  0
 20 59  1  0  0  0  0
 21 22  2  0  0  0  0
 21 23  1  0  0  0  0
 23 24  1  0  0  0  0
 23 60  1  0  0  0  0
 23 61  1  0  0  0  0
 24 25  1  0  0  0  0
 24 62  1  0  0  0  0
 24 63  1  0  0  0  0
 25 26  1  0  0  0  0
 25 64  1  0  0  0  0
 25 65  1  0  0  0  0
 26 27  1  0  0  0  0
 26 66  1  0  0  0  0
 26 67  1  0  0  0  0
 27 28  1  0  0  0  0
 27 68  1  0  0  0  0
 27 69  1  0  0  0  0
 28 70  1  0  0  0  0
 28 71  1  0  0  0  0
M  END
$$$$
