
 OpenBabel04232216593D

190189  0  0  0  0  0  0  0  0999 V2000
    1.1430    0.2580   -0.4551 O   0  0  0  0  0  0  0  0  0  0  0  0
    2.2698    0.1325    0.0373 C   0  0  0  0  0  0  0  0  0  0  0  0
    2.8962    1.2394    0.8446 C   0  0  0  0  0  0  0  0  0  0  0  0
    3.0277   -1.1820   -0.0580 C   0  0  0  0  0  0  0  0  0  0  0  0
    4.4314   -0.9761   -0.0460 O   0  0  0  0  0  0  0  0  0  0  0  0
    5.1274   -2.2126   -0.1615 C   0  0  0  0  0  0  0  0  0  0  0  0
    6.6205   -1.9280   -0.1350 C   0  0  0  0  0  0  0  0  0  0  0  0
    7.4077   -3.2249   -0.2599 C   0  0  0  0  0  0  0  0  0  0  0  0
    8.9021   -2.9511   -0.2550 C   0  0  0  0  0  0  0  0  0  0  0  0
    9.6731   -4.2629   -0.3736 C   0  0  0  0  0  0  0  0  0  0  0  0
   11.1662   -4.0020   -0.3393 C   0  0  0  0  0  0  0  0  0  0  0  0
   11.9290   -5.3083   -0.4670 C   0  0  0  0  0  0  0  0  0  0  0  0
   13.4259   -5.0417   -0.4417 C   0  0  0  0  0  0  0  0  0  0  0  0
   14.1901   -6.3472   -0.5696 C   0  0  0  0  0  0  0  0  0  0  0  0
   15.6833   -6.0768   -0.5461 C   0  0  0  0  0  0  0  0  0  0  0  0
   16.4470   -7.3815   -0.6740 C   0  0  0  0  0  0  0  0  0  0  0  0
   17.9396   -7.1108   -0.6486 C   0  0  0  0  0  0  0  0  0  0  0  0
   18.7025   -8.4158   -0.7749 C   0  0  0  0  0  0  0  0  0  0  0  0
   20.1941   -8.1448   -0.7481 C   0  0  0  0  0  0  0  0  0  0  0  0
   20.9574   -9.4495   -0.8756 C   0  0  0  0  0  0  0  0  0  0  0  0
   22.4480   -9.1806   -0.8484 C   0  0  0  0  0  0  0  0  0  0  0  0
   23.2133  -10.4824   -0.9794 C   0  0  0  0  0  0  0  0  0  0  0  0
   24.7029  -10.2099   -0.9519 C   0  0  0  0  0  0  0  0  0  0  0  0
   25.4668  -11.5147   -1.0792 C   0  0  0  0  0  0  0  0  0  0  0  0
   26.9592  -11.2440   -1.0572 C   0  0  0  0  0  0  0  0  0  0  0  0
   27.7211  -12.5490   -1.1909 C   0  0  0  0  0  0  0  0  0  0  0  0
   29.2132  -12.2780   -1.1672 C   0  0  0  0  0  0  0  0  0  0  0  0
   29.9758  -13.5826   -1.2993 C   0  0  0  0  0  0  0  0  0  0  0  0
   31.4680  -13.3115   -1.2753 C   0  0  0  0  0  0  0  0  0  0  0  0
   32.2307  -14.6161   -1.4069 C   0  0  0  0  0  0  0  0  0  0  0  0
   33.7228  -14.3446   -1.3845 C   0  0  0  0  0  0  0  0  0  0  0  0
   34.4856  -15.6491   -1.5164 C   0  0  0  0  0  0  0  0  0  0  0  0
   35.9775  -15.3775   -1.4889 C   0  0  0  0  0  0  0  0  0  0  0  0
   36.7404  -16.6815   -1.6213 C   0  0  0  0  0  0  0  0  0  0  0  0
   38.2322  -16.4091   -1.5943 C   0  0  0  0  0  0  0  0  0  0  0  0
   38.9945  -17.7131   -1.7278 C   0  0  0  0  0  0  0  0  0  0  0  0
   40.4884  -17.4433   -1.7020 C   0  0  0  0  0  0  0  0  0  0  0  0
   41.2518  -18.7416   -1.8352 C   0  0  0  0  0  0  0  0  0  0  0  0
   42.7392  -18.4730   -1.8085 C   0  0  0  0  0  0  0  0  0  0  0  0
   43.5002  -19.7790   -1.9478 C   0  0  0  0  0  0  0  0  0  0  0  0
   44.9938  -19.5087   -1.9215 C   0  0  0  0  0  0  0  0  0  0  0  0
   45.7551  -20.8127   -2.0593 C   0  0  0  0  0  0  0  0  0  0  0  0
   47.2457  -20.5408   -2.0315 C   0  0  0  0  0  0  0  0  0  0  0  0
   48.0063  -21.8447   -2.1694 C   0  0  0  0  0  0  0  0  0  0  0  0
   49.4976  -21.5694   -2.1415 C   0  0  0  0  0  0  0  0  0  0  0  0
   50.2573  -22.8779   -2.2799 C   0  0  0  0  0  0  0  0  0  0  0  0
   51.7470  -22.6016   -2.2521 C   0  0  0  0  0  0  0  0  0  0  0  0
   52.5034  -23.9045   -2.3901 C   0  0  0  0  0  0  0  0  0  0  0  0
   53.9880  -23.6279   -2.3639 C   0  0  0  0  0  0  0  0  0  0  0  0
   54.7416  -24.9313   -2.5038 C   0  0  0  0  0  0  0  0  0  0  0  0
   56.2236  -24.6465   -2.4749 C   0  0  0  0  0  0  0  0  0  0  0  0
   56.9675  -25.9492   -2.6148 C   0  0  0  0  0  0  0  0  0  0  0  0
   58.4462  -25.6636   -2.5839 C   0  0  0  0  0  0  0  0  0  0  0  0
   59.1755  -26.9706   -2.7260 C   0  0  0  0  0  0  0  0  0  0  0  0
   60.6445  -26.6798   -2.6963 C   0  0  0  0  0  0  0  0  0  0  0  0
   61.3609  -27.9882   -2.8390 C   0  0  0  0  0  0  0  0  0  0  0  0
   62.8240  -27.6858   -2.8099 C   0  0  0  0  0  0  0  0  0  0  0  0
   63.5401  -28.9761   -2.9515 C   0  0  0  0  0  0  0  0  0  0  0  0
   64.8778  -28.5896   -2.9117 O   0  0  0  0  0  0  0  0  0  0  0  0
   65.5526  -29.8180   -3.0447 O   0  0  0  0  0  0  0  0  0  0  0  0
   66.9300  -29.5556   -3.0359 O   0  0  0  0  0  0  0  0  0  0  0  0
   67.5969  -30.7834   -3.1516 O   0  0  0  0  0  0  0  0  0  0  0  0
   68.9725  -30.5232   -3.0995 O   0  0  0  0  0  0  0  0  0  0  0  0
   69.6468  -31.7441   -3.2718 O   0  0  0  0  0  0  0  0  0  0  0  0
   71.0265  -31.4730   -3.2603 O   0  0  0  0  0  0  0  0  0  0  0  0
   71.7078  -32.6982   -3.3489 O   0  0  0  0  0  0  0  0  0  0  0  0
   73.0843  -32.4127   -3.3268 O   0  0  0  0  0  0  0  0  0  0  0  0
   73.7822  -33.6240   -3.5488 O   0  0  0  0  0  0  0  0  0  0  0  0
   75.1647  -33.3431   -3.4635 O   0  0  0  0  0  0  0  0  0  0  0  0
   75.8708  -34.5666   -3.4990 O   0  0  0  0  0  0  0  0  0  0  0  0
   77.2526  -34.2944   -3.6137 O   0  0  0  0  0  0  0  0  0  0  0  0
   77.9461  -35.5155   -3.7499 O   0  0  0  0  0  0  0  0  0  0  0  0
   79.3359  -35.3028   -3.5255 O   0  0  0  0  0  0  0  0  0  0  0  0
   80.0311  -36.5268   -3.7671 O   0  0  0  0  0  0  0  0  0  0  0  0
   81.4240  -36.2652   -3.9600 O   0  0  0  0  0  0  0  0  0  0  0  0
   82.1498  -37.5067   -3.9323 O   0  0  0  0  0  0  0  0  0  0  0  0
   83.5674  -37.2416   -3.8498 O   0  0  0  0  0  0  0  0  0  0  0  0
   83.8894  -36.6459   -2.5701 O   0  0  0  0  0  0  0  0  0  0  0  0
    2.2216    2.1008    0.8636 H   0  0  0  0  0  0  0  0  0  0  0  0
    3.8364    1.5484    0.3812 H   0  0  0  0  0  0  0  0  0  0  0  0
    3.0654    0.8983    1.8660 H   0  0  0  0  0  0  0  0  0  0  0  0
    2.7366   -1.6688   -0.9961 H   0  0  0  0  0  0  0  0  0  0  0  0
    2.7324   -1.8033    0.7918 H   0  0  0  0  0  0  0  0  0  0  0  0
    4.8521   -2.7015   -1.1034 H   0  0  0  0  0  0  0  0  0  0  0  0
    4.8534   -2.8682    0.6740 H   0  0  0  0  0  0  0  0  0  0  0  0
    6.8827   -1.4088    0.7951 H   0  0  0  0  0  0  0  0  0  0  0  0
    6.8812   -1.2413   -0.9480 H   0  0  0  0  0  0  0  0  0  0  0  0
    7.1397   -3.7307   -1.1951 H   0  0  0  0  0  0  0  0  0  0  0  0
    7.1408   -3.9019    0.5610 H   0  0  0  0  0  0  0  0  0  0  0  0
    9.1791   -2.4568    0.6992 H   0  0  0  0  0  0  0  0  0  0  0  0
    9.1784   -2.2851   -1.0564 H   0  0  0  0  0  0  0  0  0  0  0  0
    9.3938   -4.7607   -1.2947 H   0  0  0  0  0  0  0  0  0  0  0  0
    9.3983   -4.9392    0.4565 H   0  0  0  0  0  0  0  0  0  0  0  0
   11.4434   -3.5001    0.5927 H   0  0  0  0  0  0  0  0  0  0  0  0
   11.4416   -3.3301   -1.1632 H   0  0  0  0  0  0  0  0  0  0  0  0
   11.6586   -5.8135   -1.4020 H   0  0  0  0  0  0  0  0  0  0  0  0
   11.6599   -5.9828    0.3558 H   0  0  0  0  0  0  0  0  0  0  0  0
   13.7002   -4.5398    0.4941 H   0  0  0  0  0  0  0  0  0  0  0  0
   13.6988   -4.3684   -1.2634 H   0  0  0  0  0  0  0  0  0  0  0  0
   13.9168   -6.8508   -1.5051 H   0  0  0  0  0  0  0  0  0  0  0  0
   13.9199   -7.0210    0.2527 H   0  0  0  0  0  0  0  0  0  0  0  0
   15.9576   -5.5736    0.3893 H   0  0  0  0  0  0  0  0  0  0  0  0
   15.9546   -5.4033   -1.3685 H   0  0  0  0  0  0  0  0  0  0  0  0
   16.1744   -7.8845   -1.6101 H   0  0  0  0  0  0  0  0  0  0  0  0
   16.1757   -8.0558    0.1476 H   0  0  0  0  0  0  0  0  0  0  0  0
   18.2125   -6.6070    0.2869 H   0  0  0  0  0  0  0  0  0  0  0  0
   18.2117   -6.4375   -1.4711 H   0  0  0  0  0  0  0  0  0  0  0  0
   18.4307   -8.9189   -1.7108 H   0  0  0  0  0  0  0  0  0  0  0  0
   18.4298   -9.0893    0.0469 H   0  0  0  0  0  0  0  0  0  0  0  0
   20.4674   -7.6429    0.1897 H   0  0  0  0  0  0  0  0  0  0  0  0
   20.4676   -7.4706   -1.5686 H   0  0  0  0  0  0  0  0  0  0  0  0
   20.6843   -9.9526   -1.8117 H   0  0  0  0  0  0  0  0  0  0  0  0
   20.6847  -10.1247   -0.0533 H   0  0  0  0  0  0  0  0  0  0  0  0
   22.7215   -8.6769    0.0882 H   0  0  0  0  0  0  0  0  0  0  0  0
   22.7211   -8.5028   -1.6712 H   0  0  0  0  0  0  0  0  0  0  0  0
   22.9400  -10.9833   -1.9163 H   0  0  0  0  0  0  0  0  0  0  0  0
   22.9397  -11.1588   -0.1590 H   0  0  0  0  0  0  0  0  0  0  0  0
   24.9756   -9.7086   -0.0147 H   0  0  0  0  0  0  0  0  0  0  0  0
   24.9758   -9.5349   -1.7722 H   0  0  0  0  0  0  0  0  0  0  0  0
   25.1916  -12.0198   -2.0134 H   0  0  0  0  0  0  0  0  0  0  0  0
   25.1974  -12.1862   -0.2549 H   0  0  0  0  0  0  0  0  0  0  0  0
   27.2339  -10.7450   -0.1198 H   0  0  0  0  0  0  0  0  0  0  0  0
   27.2296  -10.5672   -1.8769 H   0  0  0  0  0  0  0  0  0  0  0  0
   27.4462  -13.0485   -2.1281 H   0  0  0  0  0  0  0  0  0  0  0  0
   27.4505  -13.2258   -0.3711 H   0  0  0  0  0  0  0  0  0  0  0  0
   29.4875  -11.7778   -0.2303 H   0  0  0  0  0  0  0  0  0  0  0  0
   29.4836  -11.6018   -1.9876 H   0  0  0  0  0  0  0  0  0  0  0  0
   29.7015  -14.0832   -2.2360 H   0  0  0  0  0  0  0  0  0  0  0  0
   29.7054  -14.2584   -0.4786 H   0  0  0  0  0  0  0  0  0  0  0  0
   31.7423  -12.8108   -0.3386 H   0  0  0  0  0  0  0  0  0  0  0  0
   31.7386  -12.6357   -2.0960 H   0  0  0  0  0  0  0  0  0  0  0  0
   31.9561  -15.1170   -2.3434 H   0  0  0  0  0  0  0  0  0  0  0  0
   31.9605  -15.2918   -0.5860 H   0  0  0  0  0  0  0  0  0  0  0  0
   33.9980  -13.8435   -0.4481 H   0  0  0  0  0  0  0  0  0  0  0  0
   33.9924  -13.6695   -2.2055 H   0  0  0  0  0  0  0  0  0  0  0  0
   34.2137  -16.1478   -2.4549 H   0  0  0  0  0  0  0  0  0  0  0  0
   34.2135  -16.3268   -0.6978 H   0  0  0  0  0  0  0  0  0  0  0  0
   36.2499  -14.8784   -0.5508 H   0  0  0  0  0  0  0  0  0  0  0  0
   36.2494  -14.7002   -2.3079 H   0  0  0  0  0  0  0  0  0  0  0  0
   36.4682  -17.1809   -2.5593 H   0  0  0  0  0  0  0  0  0  0  0  0
   36.4690  -17.3589   -0.8023 H   0  0  0  0  0  0  0  0  0  0  0  0
   38.5046  -15.9108   -0.6558 H   0  0  0  0  0  0  0  0  0  0  0  0
   38.5038  -15.7312   -2.4127 H   0  0  0  0  0  0  0  0  0  0  0  0
   38.7224  -18.2123   -2.6652 H   0  0  0  0  0  0  0  0  0  0  0  0
   38.7243  -18.3903   -0.9082 H   0  0  0  0  0  0  0  0  0  0  0  0
   40.7604  -16.9438   -0.7622 H   0  0  0  0  0  0  0  0  0  0  0  0
   40.7585  -16.7628   -2.5195 H   0  0  0  0  0  0  0  0  0  0  0  0
   40.9758  -19.2443   -2.7778 H   0  0  0  0  0  0  0  0  0  0  0  0
   40.9769  -19.4245   -1.0180 H   0  0  0  0  0  0  0  0  0  0  0  0
   43.0137  -17.9801   -0.8701 H   0  0  0  0  0  0  0  0  0  0  0  0
   43.0138  -17.7921   -2.6249 H   0  0  0  0  0  0  0  0  0  0  0  0
   43.2272  -20.2749   -2.8881 H   0  0  0  0  0  0  0  0  0  0  0  0
   43.2293  -20.4589   -1.1319 H   0  0  0  0  0  0  0  0  0  0  0  0
   45.2661  -19.0136   -0.9813 H   0  0  0  0  0  0  0  0  0  0  0  0
   45.2646  -18.8287   -2.7375 H   0  0  0  0  0  0  0  0  0  0  0  0
   45.4818  -21.3080   -2.9989 H   0  0  0  0  0  0  0  0  0  0  0  0
   45.4832  -21.4933   -1.2426 H   0  0  0  0  0  0  0  0  0  0  0  0
   47.5192  -20.0455   -1.0917 H   0  0  0  0  0  0  0  0  0  0  0  0
   47.5180  -19.8603   -2.8481 H   0  0  0  0  0  0  0  0  0  0  0  0
   47.7346  -22.3399   -3.1093 H   0  0  0  0  0  0  0  0  0  0  0  0
   47.7358  -22.5249   -1.3530 H   0  0  0  0  0  0  0  0  0  0  0  0
   49.7707  -21.0767   -1.2024 H   0  0  0  0  0  0  0  0  0  0  0  0
   49.7694  -20.8918   -2.9578 H   0  0  0  0  0  0  0  0  0  0  0  0
   49.9853  -23.3705   -3.2190 H   0  0  0  0  0  0  0  0  0  0  0  0
   49.9867  -23.5554   -1.4638 H   0  0  0  0  0  0  0  0  0  0  0  0
   52.0208  -22.1069   -1.3121 H   0  0  0  0  0  0  0  0  0  0  0  0
   52.0192  -21.9217   -3.0687 H   0  0  0  0  0  0  0  0  0  0  0  0
   52.2309  -24.4019   -3.3299 H   0  0  0  0  0  0  0  0  0  0  0  0
   52.2342  -24.5861   -1.5728 H   0  0  0  0  0  0  0  0  0  0  0  0
   54.2660  -23.1344   -1.4238 H   0  0  0  0  0  0  0  0  0  0  0  0
   54.2624  -22.9482   -3.1808 H   0  0  0  0  0  0  0  0  0  0  0  0
   54.4728  -25.4259   -3.4440 H   0  0  0  0  0  0  0  0  0  0  0  0
   54.4746  -25.6133   -1.6886 H   0  0  0  0  0  0  0  0  0  0  0  0
   56.5007  -24.1550   -1.5340 H   0  0  0  0  0  0  0  0  0  0  0  0
   56.4990  -23.9674   -3.2913 H   0  0  0  0  0  0  0  0  0  0  0  0
   56.7011  -26.4444   -3.5579 H   0  0  0  0  0  0  0  0  0  0  0  0
   56.7011  -26.6337   -1.7985 H   0  0  0  0  0  0  0  0  0  0  0  0
   58.7253  -25.1757   -1.6418 H   0  0  0  0  0  0  0  0  0  0  0  0
   58.7250  -24.9846   -3.3991 H   0  0  0  0  0  0  0  0  0  0  0  0
   58.9053  -27.4635   -3.6679 H   0  0  0  0  0  0  0  0  0  0  0  0
   58.9073  -27.6536   -1.9106 H   0  0  0  0  0  0  0  0  0  0  0  0
   60.9273  -26.1923   -1.7548 H   0  0  0  0  0  0  0  0  0  0  0  0
   60.9249  -26.0022   -3.5127 H   0  0  0  0  0  0  0  0  0  0  0  0
   61.0918  -28.4817   -3.7812 H   0  0  0  0  0  0  0  0  0  0  0  0
   61.0962  -28.6708   -2.0218 H   0  0  0  0  0  0  0  0  0  0  0  0
   63.1157  -27.1916   -1.8757 H   0  0  0  0  0  0  0  0  0  0  0  0
   63.1112  -27.0032   -3.6197 H   0  0  0  0  0  0  0  0  0  0  0  0
   63.3156  -29.4708   -3.9047 H   0  0  0  0  0  0  0  0  0  0  0  0
   63.3193  -29.6635   -2.1249 H   0  0  0  0  0  0  0  0  0  0  0  0
   84.8061  -36.4340   -2.7989 H   0  0  0  0  0  0  0  0  0  0  0  0
  1  2  2  0  0  0  0
  2  3  1  0  0  0  0
  2  4  1  0  0  0  0
  3 79  1  0  0  0  0
  3 80  1  0  0  0  0
  3 81  1  0  0  0  0
  4  5  1  0  0  0  0
  4 82  1  0  0  0  0
  4 83  1  0  0  0  0
  5  6  1  0  0  0  0
  6  7  1  0  0  0  0
  6 84  1  0  0  0  0
  6 85  1  0  0  0  0
  7  8  1  0  0  0  0
  7 86  1  0  0  0  0
  7 87  1  0  0  0  0
  8  9  1  0  0  0  0
  8 88  1  0  0  0  0
  8 89  1  0  0  0  0
  9 10  1  0  0  0  0
  9 90  1  0  0  0  0
  9 91  1  0  0  0  0
 10 11  1  0  0  0  0
 10 92  1  0  0  0  0
 10 93  1  0  0  0  0
 11 12  1  0  0  0  0
 11 94  1  0  0  0  0
 11 95  1  0  0  0  0
 12 13  1  0  0  0  0
 12 96  1  0  0  0  0
 12 97  1  0  0  0  0
 13 14  1  0  0  0  0
 13 98  1  0  0  0  0
 13 99  1  0  0  0  0
 14 15  1  0  0  0  0
 14100  1  0  0  0  0
 14101  1  0  0  0  0
 15 16  1  0  0  0  0
 15102  1  0  0  0  0
 15103  1  0  0  0  0
 16 17  1  0  0  0  0
 16104  1  0  0  0  0
 16105  1  0  0  0  0
 17 18  1  0  0  0  0
 17106  1  0  0  0  0
 17107  1  0  0  0  0
 18 19  1  0  0  0  0
 18108  1  0  0  0  0
 18109  1  0  0  0  0
 19 20  1  0  0  0  0
 19110  1  0  0  0  0
 19111  1  0  0  0  0
 20 21  1  0  0  0  0
 20112  1  0  0  0  0
 20113  1  0  0  0  0
 21 22  1  0  0  0  0
 21114  1  0  0  0  0
 21115  1  0  0  0  0
 22 23  1  0  0  0  0
 22116  1  0  0  0  0
 22117  1  0  0  0  0
 23 24  1  0  0  0  0
 23118  1  0  0  0  0
 23119  1  0  0  0  0
 24 25  1  0  0  0  0
 24120  1  0  0  0  0
 24121  1  0  0  0  0
 25 26  1  0  0  0  0
 25122  1  0  0  0  0
 25123  1  0  0  0  0
 26 27  1  0  0  0  0
 26124  1  0  0  0  0
 26125  1  0  0  0  0
 27 28  1  0  0  0  0
 27126  1  0  0  0  0
 27127  1  0  0  0  0
 28 29  1  0  0  0  0
 28128  1  0  0  0  0
 28129  1  0  0  0  0
 29 30  1  0  0  0  0
 29130  1  0  0  0  0
 29131  1  0  0  0  0
 30 31  1  0  0  0  0
 30132  1  0  0  0  0
 30133  1  0  0  0  0
 31 32  1  0  0  0  0
 31134  1  0  0  0  0
 31135  1  0  0  0  0
 32 33  1  0  0  0  0
 32136  1  0  0  0  0
 32137  1  0  0  0  0
 33 34  1  0  0  0  0
 33138  1  0  0  0  0
 33139  1  0  0  0  0
 34 35  1  0  0  0  0
 34140  1  0  0  0  0
 34141  1  0  0  0  0
 35 36  1  0  0  0  0
 35142  1  0  0  0  0
 35143  1  0  0  0  0
 36 37  1  0  0  0  0
 36144  1  0  0  0  0
 36145  1  0  0  0  0
 37 38  1  0  0  0  0
 37146  1  0  0  0  0
 37147  1  0  0  0  0
 38 39  1  0  0  0  0
 38148  1  0  0  0  0
 38149  1  0  0  0  0
 39 40  1  0  0  0  0
 39150  1  0  0  0  0
 39151  1  0  0  0  0
 40 41  1  0  0  0  0
 40152  1  0  0  0  0
 40153  1  0  0  0  0
 41 42  1  0  0  0  0
 41154  1  0  0  0  0
 41155  1  0  0  0  0
 42 43  1  0  0  0  0
 42156  1  0  0  0  0
 42157  1  0  0  0  0
 43 44  1  0  0  0  0
 43158  1  0  0  0  0
 43159  1  0  0  0  0
 44 45  1  0  0  0  0
 44160  1  0  0  0  0
 44161  1  0  0  0  0
 45 46  1  0  0  0  0
 45162  1  0  0  0  0
 45163  1  0  0  0  0
 46 47  1  0  0  0  0
 46164  1  0  0  0  0
 46165  1  0  0  0  0
 47 48  1  0  0  0  0
 47166  1  0  0  0  0
 47167  1  0  0  0  0
 48 49  1  0  0  0  0
 48168  1  0  0  0  0
 48169  1  0  0  0  0
 49 50  1  0  0  0  0
 49170  1  0  0  0  0
 49171  1  0  0  0  0
 50 51  1  0  0  0  0
 50172  1  0  0  0  0
 50173  1  0  0  0  0
 51 52  1  0  0  0  0
 51174  1  0  0  0  0
 51175  1  0  0  0  0
 52 53  1  0  0  0  0
 52176  1  0  0  0  0
 52177  1  0  0  0  0
 53 54  1  0  0  0  0
 53178  1  0  0  0  0
 53179  1  0  0  0  0
 54 55  1  0  0  0  0
 54180  1  0  0  0  0
 54181  1  0  0  0  0
 55 56  1  0  0  0  0
 55182  1  0  0  0  0
 55183  1  0  0  0  0
 56 57  1  0  0  0  0
 56184  1  0  0  0  0
 56185  1  0  0  0  0
 57 58  1  0  0  0  0
 57186  1  0  0  0  0
 57187  1  0  0  0  0
 58 59  1  0  0  0  0
 58188  1  0  0  0  0
 58189  1  0  0  0  0
 59 60  1  0  0  0  0
 60 61  1  0  0  0  0
 61 62  1  0  0  0  0
 62 63  1  0  0  0  0
 63 64  1  0  0  0  0
 64 65  1  0  0  0  0
 65 66  1  0  0  0  0
 66 67  1  0  0  0  0
 67 68  1  0  0  0  0
 68 69  1  0  0  0  0
 69 70  1  0  0  0  0
 70 71  1  0  0  0  0
 71 72  1  0  0  0  0
 72 73  1  0  0  0  0
 73 74  1  0  0  0  0
 74 75  1  0  0  0  0
 75 76  1  0  0  0  0
 76 77  1  0  0  0  0
 77 78  1  0  0  0  0
 78190  1  0  0  0  0
M  END
$$$$
