
 OpenBabel04232216543D

226225  0  0  0  0  0  0  0  0999 V2000
    8.7091    5.2879    1.1852 C   0  0  0  0  0  0  0  0  0  0  0  0
    8.2190    3.8832    0.8963 C   0  0  0  0  0  0  0  0  0  0  0  0
    8.7290    3.4126   -0.4610 C   0  0  0  0  0  0  0  0  0  0  0  0
    8.2418    1.9953   -0.7613 C   0  0  0  0  0  0  0  0  0  0  0  0
    8.7513    1.5899   -2.0616 N   0  0  0  0  0  0  0  0  0  0  0  0
    8.2867    0.2575   -2.3309 N   0  0  0  0  0  0  0  0  0  0  0  0
    8.7556   -0.1681   -3.5814 N   0  0  0  0  0  0  0  0  0  0  0  0
    8.2977   -1.4754   -3.8452 N   0  0  0  0  0  0  0  0  0  0  0  0
    8.7743   -1.9021   -5.1065 N   0  0  0  0  0  0  0  0  0  0  0  0
   10.1879   -1.8985   -5.1148 N   0  0  0  0  0  0  0  0  0  0  0  0
   10.6503   -2.3227   -6.3676 N   0  0  0  0  0  0  0  0  0  0  0  0
   12.0708   -2.3198   -6.3869 N   0  0  0  0  0  0  0  0  0  0  0  0
   12.5516   -2.7501   -7.6459 N   0  0  0  0  0  0  0  0  0  0  0  0
   13.9587   -2.7414   -7.6430 N   0  0  0  0  0  0  0  0  0  0  0  0
   14.4415   -3.1749   -8.9133 N   0  0  0  0  0  0  0  0  0  0  0  0
   15.8672   -3.1732   -8.9258 N   0  0  0  0  0  0  0  0  0  0  0  0
   16.3682   -3.6100  -10.1959 N   0  0  0  0  0  0  0  0  0  0  0  0
   17.7852   -3.6103  -10.2095 N   0  0  0  0  0  0  0  0  0  0  0  0
   18.2516   -4.0441  -11.4684 N   0  0  0  0  0  0  0  0  0  0  0  0
   19.6592   -4.0421  -11.4676 N   0  0  0  0  0  0  0  0  0  0  0  0
   20.1436   -4.4736  -12.7252 N   0  0  0  0  0  0  0  0  0  0  0  0
   21.5574   -4.4720  -12.7317 N   0  0  0  0  0  0  0  0  0  0  0  0
   22.0266   -4.9073  -14.0053 N   0  0  0  0  0  0  0  0  0  0  0  0
   23.4875   -4.9004  -13.9916 C   0  0  0  0  0  0  0  0  0  0  0  0
   23.9987   -5.3630  -15.3451 C   0  0  0  0  0  0  0  0  0  0  0  0
   25.5182   -5.3657  -15.3530 C   0  0  0  0  0  0  0  0  0  0  0  0
   26.0317   -5.8272  -16.7035 C   0  0  0  0  0  0  0  0  0  0  0  0
   27.5482   -5.8294  -16.7099 C   0  0  0  0  0  0  0  0  0  0  0  0
   28.0597   -6.2909  -18.0604 C   0  0  0  0  0  0  0  0  0  0  0  0
   29.5755   -6.2929  -18.0663 C   0  0  0  0  0  0  0  0  0  0  0  0
   30.0866   -6.7544  -19.4167 C   0  0  0  0  0  0  0  0  0  0  0  0
   31.6023   -6.7563  -19.4225 C   0  0  0  0  0  0  0  0  0  0  0  0
   32.1133   -7.2178  -20.7728 C   0  0  0  0  0  0  0  0  0  0  0  0
   33.6290   -7.2217  -20.7779 C   0  0  0  0  0  0  0  0  0  0  0  0
   34.1399   -7.6831  -22.1282 C   0  0  0  0  0  0  0  0  0  0  0  0
   35.6556   -7.6851  -22.1340 C   0  0  0  0  0  0  0  0  0  0  0  0
   36.1666   -8.1446  -23.4850 C   0  0  0  0  0  0  0  0  0  0  0  0
   37.6823   -8.1485  -23.4901 C   0  0  0  0  0  0  0  0  0  0  0  0
   38.1932   -8.6099  -24.8404 C   0  0  0  0  0  0  0  0  0  0  0  0
   39.7089   -8.6119  -24.8461 C   0  0  0  0  0  0  0  0  0  0  0  0
   40.2199   -9.0752  -26.1958 C   0  0  0  0  0  0  0  0  0  0  0  0
   41.7356   -9.0772  -26.2016 C   0  0  0  0  0  0  0  0  0  0  0  0
   42.2466   -9.5405  -27.5512 C   0  0  0  0  0  0  0  0  0  0  0  0
   43.7623   -9.5425  -27.5570 C   0  0  0  0  0  0  0  0  0  0  0  0
   44.2732  -10.0059  -28.9067 C   0  0  0  0  0  0  0  0  0  0  0  0
   45.7889  -10.0078  -28.9124 C   0  0  0  0  0  0  0  0  0  0  0  0
   46.2999  -10.4712  -30.2621 C   0  0  0  0  0  0  0  0  0  0  0  0
   47.8156  -10.4731  -30.2678 C   0  0  0  0  0  0  0  0  0  0  0  0
   48.3265  -10.9365  -31.6175 C   0  0  0  0  0  0  0  0  0  0  0  0
   49.8423  -10.9404  -31.6226 C   0  0  0  0  0  0  0  0  0  0  0  0
   50.3532  -11.4037  -32.9723 C   0  0  0  0  0  0  0  0  0  0  0  0
   51.8689  -11.4057  -32.9780 C   0  0  0  0  0  0  0  0  0  0  0  0
   52.3799  -11.8671  -34.3284 C   0  0  0  0  0  0  0  0  0  0  0  0
   53.8956  -11.8672  -34.3348 C   0  0  0  0  0  0  0  0  0  0  0  0
   54.4065  -12.3305  -35.6844 C   0  0  0  0  0  0  0  0  0  0  0  0
   55.9222  -12.3325  -35.6902 C   0  0  0  0  0  0  0  0  0  0  0  0
   56.4332  -12.7977  -37.0392 C   0  0  0  0  0  0  0  0  0  0  0  0
   57.9489  -12.8016  -37.0443 C   0  0  0  0  0  0  0  0  0  0  0  0
   58.4599  -13.2669  -38.3933 C   0  0  0  0  0  0  0  0  0  0  0  0
   59.9756  -13.2726  -38.3977 C   0  0  0  0  0  0  0  0  0  0  0  0
   60.4865  -13.7379  -39.7468 C   0  0  0  0  0  0  0  0  0  0  0  0
   62.0022  -13.7437  -39.7512 C   0  0  0  0  0  0  0  0  0  0  0  0
   62.5132  -14.2089  -41.1002 C   0  0  0  0  0  0  0  0  0  0  0  0
   64.0289  -14.2147  -41.1046 C   0  0  0  0  0  0  0  0  0  0  0  0
   64.5398  -14.6799  -42.4537 C   0  0  0  0  0  0  0  0  0  0  0  0
   66.0555  -14.6857  -42.4581 C   0  0  0  0  0  0  0  0  0  0  0  0
   66.5665  -15.1510  -43.8071 C   0  0  0  0  0  0  0  0  0  0  0  0
   68.0822  -15.1568  -43.8116 C   0  0  0  0  0  0  0  0  0  0  0  0
   68.5931  -15.6220  -45.1606 C   0  0  0  0  0  0  0  0  0  0  0  0
   70.1088  -15.6297  -45.1644 C   0  0  0  0  0  0  0  0  0  0  0  0
   70.6198  -16.0949  -46.5134 C   0  0  0  0  0  0  0  0  0  0  0  0
   72.1355  -16.1026  -46.5172 C   0  0  0  0  0  0  0  0  0  0  0  0
   72.6464  -16.5679  -47.8662 C   0  0  0  0  0  0  0  0  0  0  0  0
   74.1621  -16.5756  -47.8699 C   0  0  0  0  0  0  0  0  0  0  0  0
   74.6731  -17.0408  -49.2190 C   0  0  0  0  0  0  0  0  0  0  0  0
   76.1888  -17.0504  -49.2221 C   0  0  0  0  0  0  0  0  0  0  0  0
   76.7000  -17.5156  -50.5711 C   0  0  0  0  0  0  0  0  0  0  0  0
   78.2161  -17.5252  -50.5742 C   0  0  0  0  0  0  0  0  0  0  0  0
   78.7282  -17.9925  -51.9229 C   0  0  0  0  0  0  0  0  0  0  0  0
   80.2464  -18.0054  -51.9294 C   0  0  0  0  0  0  0  0  0  0  0  0
   80.7540  -18.4719  -53.2760 C   0  0  0  0  0  0  0  0  0  0  0  0
    8.3430    5.6251    2.1585 H   0  0  0  0  0  0  0  0  0  0  0  0
    8.3511    5.9830    0.4192 H   0  0  0  0  0  0  0  0  0  0  0  0
    9.8033    5.3165    1.1963 H   0  0  0  0  0  0  0  0  0  0  0  0
    7.1232    3.8708    0.9076 H   0  0  0  0  0  0  0  0  0  0  0  0
    8.5716    3.2061    1.6827 H   0  0  0  0  0  0  0  0  0  0  0  0
    9.8266    3.4437   -0.4625 H   0  0  0  0  0  0  0  0  0  0  0  0
    8.3762    4.1031   -1.2379 H   0  0  0  0  0  0  0  0  0  0  0  0
    7.1464    1.9921   -0.7454 H   0  0  0  0  0  0  0  0  0  0  0  0
    8.6018    1.3268    0.0309 H   0  0  0  0  0  0  0  0  0  0  0  0
    9.7737    1.6351   -2.0073 H   0  0  0  0  0  0  0  0  0  0  0  0
    7.2614    0.2406   -2.3417 H   0  0  0  0  0  0  0  0  0  0  0  0
    9.7755   -0.1890   -3.5949 H   0  0  0  0  0  0  0  0  0  0  0  0
    7.2811   -1.4715   -3.8529 H   0  0  0  0  0  0  0  0  0  0  0  0
    8.4473   -1.2527   -5.8208 H   0  0  0  0  0  0  0  0  0  0  0  0
   10.5320   -2.5387   -4.4022 H   0  0  0  0  0  0  0  0  0  0  0  0
   10.3208   -1.6879   -7.0926 H   0  0  0  0  0  0  0  0  0  0  0  0
   12.4230   -2.9521   -5.6698 H   0  0  0  0  0  0  0  0  0  0  0  0
   12.2222   -2.1132   -8.3704 H   0  0  0  0  0  0  0  0  0  0  0  0
   14.3126   -3.3760   -6.9302 H   0  0  0  0  0  0  0  0  0  0  0  0
   14.0497   -2.5474   -9.6197 H   0  0  0  0  0  0  0  0  0  0  0  0
   16.1853   -3.7932   -8.1682 H   0  0  0  0  0  0  0  0  0  0  0  0
   16.0622   -2.9747  -10.9393 H   0  0  0  0  0  0  0  0  0  0  0  0
   18.1584   -4.2516   -9.5116 H   0  0  0  0  0  0  0  0  0  0  0  0
   17.9137   -3.4145  -12.1954 H   0  0  0  0  0  0  0  0  0  0  0  0
   20.0072   -4.6653  -10.7400 H   0  0  0  0  0  0  0  0  0  0  0  0
   19.7961   -3.8487  -13.4516 H   0  0  0  0  0  0  0  0  0  0  0  0
   21.8666   -5.1078  -11.9974 H   0  0  0  0  0  0  0  0  0  0  0  0
   21.6873   -4.2507  -14.7079 H   0  0  0  0  0  0  0  0  0  0  0  0
   23.8577   -5.5822  -13.2160 H   0  0  0  0  0  0  0  0  0  0  0  0
   23.8696   -3.8943  -13.7794 H   0  0  0  0  0  0  0  0  0  0  0  0
   23.6306   -4.6958  -16.1341 H   0  0  0  0  0  0  0  0  0  0  0  0
   23.6309   -6.3739  -15.5610 H   0  0  0  0  0  0  0  0  0  0  0  0
   25.8940   -6.0334  -14.5682 H   0  0  0  0  0  0  0  0  0  0  0  0
   25.8932   -4.3571  -15.1412 H   0  0  0  0  0  0  0  0  0  0  0  0
   25.6597   -5.1597  -17.4900 H   0  0  0  0  0  0  0  0  0  0  0  0
   25.6597   -6.8364  -16.9172 H   0  0  0  0  0  0  0  0  0  0  0  0
   27.9219   -6.4972  -15.9244 H   0  0  0  0  0  0  0  0  0  0  0  0
   27.9219   -4.8205  -16.4974 H   0  0  0  0  0  0  0  0  0  0  0  0
   27.6867   -5.6232  -18.8465 H   0  0  0  0  0  0  0  0  0  0  0  0
   27.6867   -7.3000  -18.2735 H   0  0  0  0  0  0  0  0  0  0  0  0
   29.9488   -6.9607  -17.2805 H   0  0  0  0  0  0  0  0  0  0  0  0
   29.9488   -5.2839  -17.8535 H   0  0  0  0  0  0  0  0  0  0  0  0
   29.7134   -6.0866  -20.2026 H   0  0  0  0  0  0  0  0  0  0  0  0
   29.7134   -7.7634  -19.6296 H   0  0  0  0  0  0  0  0  0  0  0  0
   31.9755   -7.4241  -18.6366 H   0  0  0  0  0  0  0  0  0  0  0  0
   31.9755   -5.7473  -19.2096 H   0  0  0  0  0  0  0  0  0  0  0  0
   31.7413   -6.5492  -21.5585 H   0  0  0  0  0  0  0  0  0  0  0  0
   31.7389   -8.2262  -20.9863 H   0  0  0  0  0  0  0  0  0  0  0  0
   34.0009   -7.8902  -19.9922 H   0  0  0  0  0  0  0  0  0  0  0  0
   34.0033   -6.2132  -20.5644 H   0  0  0  0  0  0  0  0  0  0  0  0
   33.7668   -7.0154  -22.9141 H   0  0  0  0  0  0  0  0  0  0  0  0
   33.7667   -8.6921  -22.3411 H   0  0  0  0  0  0  0  0  0  0  0  0
   36.0288   -8.3539  -21.3490 H   0  0  0  0  0  0  0  0  0  0  0  0
   36.0288   -6.6763  -21.9197 H   0  0  0  0  0  0  0  0  0  0  0  0
   35.7946   -7.4749  -24.2697 H   0  0  0  0  0  0  0  0  0  0  0  0
   35.7922   -9.1527  -23.6999 H   0  0  0  0  0  0  0  0  0  0  0  0
   38.0543   -8.8171  -22.7043 H   0  0  0  0  0  0  0  0  0  0  0  0
   38.0566   -7.1400  -23.2765 H   0  0  0  0  0  0  0  0  0  0  0  0
   37.8201   -7.9422  -25.6263 H   0  0  0  0  0  0  0  0  0  0  0  0
   37.8201   -9.6189  -25.0533 H   0  0  0  0  0  0  0  0  0  0  0  0
   40.0821   -9.2785  -24.0593 H   0  0  0  0  0  0  0  0  0  0  0  0
   40.0821   -7.6026  -24.6347 H   0  0  0  0  0  0  0  0  0  0  0  0
   39.8467   -8.4086  -26.9826 H   0  0  0  0  0  0  0  0  0  0  0  0
   39.8467  -10.0846  -26.4073 H   0  0  0  0  0  0  0  0  0  0  0  0
   42.1088   -9.7438  -25.4147 H   0  0  0  0  0  0  0  0  0  0  0  0
   42.1088   -8.0679  -25.9901 H   0  0  0  0  0  0  0  0  0  0  0  0
   41.8734   -8.8739  -28.3380 H   0  0  0  0  0  0  0  0  0  0  0  0
   41.8734  -10.5499  -27.7627 H   0  0  0  0  0  0  0  0  0  0  0  0
   44.1354  -10.2091  -26.7702 H   0  0  0  0  0  0  0  0  0  0  0  0
   44.1354   -8.5332  -27.3455 H   0  0  0  0  0  0  0  0  0  0  0  0
   43.9001   -9.3392  -29.6935 H   0  0  0  0  0  0  0  0  0  0  0  0
   43.9001  -11.0152  -29.1181 H   0  0  0  0  0  0  0  0  0  0  0  0
   46.1621  -10.6744  -28.1256 H   0  0  0  0  0  0  0  0  0  0  0  0
   46.1621   -8.9985  -28.7009 H   0  0  0  0  0  0  0  0  0  0  0  0
   45.9267   -9.8045  -31.0489 H   0  0  0  0  0  0  0  0  0  0  0  0
   45.9267  -11.4805  -30.4736 H   0  0  0  0  0  0  0  0  0  0  0  0
   48.1888  -11.1398  -29.4810 H   0  0  0  0  0  0  0  0  0  0  0  0
   48.1888   -9.4638  -30.0564 H   0  0  0  0  0  0  0  0  0  0  0  0
   47.9546  -10.2690  -32.4042 H   0  0  0  0  0  0  0  0  0  0  0  0
   47.9522  -11.9452  -31.8296 H   0  0  0  0  0  0  0  0  0  0  0  0
   50.2142  -11.6078  -30.8359 H   0  0  0  0  0  0  0  0  0  0  0  0
   50.2166   -9.9316  -31.4105 H   0  0  0  0  0  0  0  0  0  0  0  0
   49.9800  -10.7371  -33.7591 H   0  0  0  0  0  0  0  0  0  0  0  0
   49.9800  -12.4130  -33.1837 H   0  0  0  0  0  0  0  0  0  0  0  0
   52.2421  -12.0734  -32.1922 H   0  0  0  0  0  0  0  0  0  0  0  0
   52.2421  -10.3967  -32.7651 H   0  0  0  0  0  0  0  0  0  0  0  0
   52.0055  -11.2002  -35.1144 H   0  0  0  0  0  0  0  0  0  0  0  0
   52.0079  -12.8767  -34.5406 H   0  0  0  0  0  0  0  0  0  0  0  0
   54.2699  -12.5330  -33.5478 H   0  0  0  0  0  0  0  0  0  0  0  0
   54.2676  -10.8573  -34.1239 H   0  0  0  0  0  0  0  0  0  0  0  0
   54.0334  -11.6639  -36.4713 H   0  0  0  0  0  0  0  0  0  0  0  0
   54.0334  -13.3398  -35.8959 H   0  0  0  0  0  0  0  0  0  0  0  0
   56.2954  -12.9980  -34.9024 H   0  0  0  0  0  0  0  0  0  0  0  0
   56.2954  -11.3229  -35.4801 H   0  0  0  0  0  0  0  0  0  0  0  0
   56.0612  -12.1314  -37.8268 H   0  0  0  0  0  0  0  0  0  0  0  0
   56.0589  -13.8068  -37.2499 H   0  0  0  0  0  0  0  0  0  0  0  0
   58.3209  -13.4680  -36.2567 H   0  0  0  0  0  0  0  0  0  0  0  0
   58.3232  -11.7926  -36.8336 H   0  0  0  0  0  0  0  0  0  0  0  0
   58.0890  -12.5997  -39.1808 H   0  0  0  0  0  0  0  0  0  0  0  0
   58.0843  -14.2753  -38.6046 H   0  0  0  0  0  0  0  0  0  0  0  0
   60.3464  -13.9398  -37.6103 H   0  0  0  0  0  0  0  0  0  0  0  0
   60.3511  -12.2642  -38.1864 H   0  0  0  0  0  0  0  0  0  0  0  0
   60.1157  -13.0707  -40.5342 H   0  0  0  0  0  0  0  0  0  0  0  0
   60.1110  -14.7464  -39.9581 H   0  0  0  0  0  0  0  0  0  0  0  0
   62.3730  -14.4109  -38.9638 H   0  0  0  0  0  0  0  0  0  0  0  0
   62.3777  -12.7352  -39.5399 H   0  0  0  0  0  0  0  0  0  0  0  0
   62.1424  -13.5417  -41.8877 H   0  0  0  0  0  0  0  0  0  0  0  0
   62.1377  -15.2174  -41.3115 H   0  0  0  0  0  0  0  0  0  0  0  0
   64.3997  -14.8819  -40.3172 H   0  0  0  0  0  0  0  0  0  0  0  0
   64.4044  -13.2062  -40.8933 H   0  0  0  0  0  0  0  0  0  0  0  0
   64.1690  -14.0128  -43.2411 H   0  0  0  0  0  0  0  0  0  0  0  0
   64.1643  -15.6884  -42.6650 H   0  0  0  0  0  0  0  0  0  0  0  0
   66.4263  -15.3529  -41.6707 H   0  0  0  0  0  0  0  0  0  0  0  0
   66.4310  -13.6772  -42.2468 H   0  0  0  0  0  0  0  0  0  0  0  0
   66.1957  -14.4838  -44.5946 H   0  0  0  0  0  0  0  0  0  0  0  0
   66.1910  -16.1595  -44.0185 H   0  0  0  0  0  0  0  0  0  0  0  0
   68.4530  -15.8240  -43.0241 H   0  0  0  0  0  0  0  0  0  0  0  0
   68.4577  -14.1483  -43.6002 H   0  0  0  0  0  0  0  0  0  0  0  0
   68.2235  -14.9540  -45.9479 H   0  0  0  0  0  0  0  0  0  0  0  0
   68.2165  -16.6299  -45.3725 H   0  0  0  0  0  0  0  0  0  0  0  0
   70.4785  -16.2977  -44.3771 H   0  0  0  0  0  0  0  0  0  0  0  0
   70.4855  -14.6218  -44.9524 H   0  0  0  0  0  0  0  0  0  0  0  0
   70.2502  -15.4269  -47.3007 H   0  0  0  0  0  0  0  0  0  0  0  0
   70.2431  -17.1029  -46.7253 H   0  0  0  0  0  0  0  0  0  0  0  0
   72.5051  -16.7707  -45.7299 H   0  0  0  0  0  0  0  0  0  0  0  0
   72.5122  -15.0947  -46.3052 H   0  0  0  0  0  0  0  0  0  0  0  0
   72.2768  -15.8998  -48.6535 H   0  0  0  0  0  0  0  0  0  0  0  0
   72.2698  -17.5758  -48.0781 H   0  0  0  0  0  0  0  0  0  0  0  0
   74.5318  -17.2436  -47.0827 H   0  0  0  0  0  0  0  0  0  0  0  0
   74.5388  -15.5677  -47.6580 H   0  0  0  0  0  0  0  0  0  0  0  0
   74.3047  -16.3719  -50.0061 H   0  0  0  0  0  0  0  0  0  0  0  0
   74.2952  -18.0481  -49.4316 H   0  0  0  0  0  0  0  0  0  0  0  0
   76.5572  -17.7193  -48.4350 H   0  0  0  0  0  0  0  0  0  0  0  0
   76.5666  -16.0431  -49.0095 H   0  0  0  0  0  0  0  0  0  0  0  0
   76.3314  -16.8468  -51.3582 H   0  0  0  0  0  0  0  0  0  0  0  0
   76.3219  -18.5230  -50.7837 H   0  0  0  0  0  0  0  0  0  0  0  0
   78.5841  -18.1930  -49.7859 H   0  0  0  0  0  0  0  0  0  0  0  0
   78.5935  -16.5174  -50.3628 H   0  0  0  0  0  0  0  0  0  0  0  0
   78.3591  -17.3238  -52.7103 H   0  0  0  0  0  0  0  0  0  0  0  0
   78.3474  -18.9993  -52.1343 H   0  0  0  0  0  0  0  0  0  0  0  0
   80.6154  -18.6748  -51.1441 H   0  0  0  0  0  0  0  0  0  0  0  0
   80.6272  -16.9994  -51.7201 H   0  0  0  0  0  0  0  0  0  0  0  0
   80.3927  -19.4826  -53.4902 H   0  0  0  0  0  0  0  0  0  0  0  0
   81.8462  -18.4823  -53.2840 H   0  0  0  0  0  0  0  0  0  0  0  0
   80.4045  -17.8021  -54.0679 H   0  0  0  0  0  0  0  0  0  0  0  0
  1  2  1  0  0  0  0
  1 82  1  0  0  0  0
  1 83  1  0  0  0  0
  1 84  1  0  0  0  0
  2  3  1  0  0  0  0
  2 85  1  0  0  0  0
  2 86  1  0  0  0  0
  3  4  1  0  0  0  0
  3 87  1  0  0  0  0
  3 88  1  0  0  0  0
  4  5  1  0  0  0  0
  4 89  1  0  0  0  0
  4 90  1  0  0  0  0
  5  6  1  0  0  0  0
  5 91  1  0  0  0  0
  6  7  1  0  0  0  0
  6 92  1  0  0  0  0
  7  8  1  0  0  0  0
  7 93  1  0  0  0  0
  8  9  1  0  0  0  0
  8 94  1  0  0  0  0
  9 10  1  0  0  0  0
  9 95  1  0  0  0  0
 10 11  1  0  0  0  0
 10 96  1  0  0  0  0
 11 12  1  0  0  0  0
 11 97  1  0  0  0  0
 12 13  1  0  0  0  0
 12 98  1  0  0  0  0
 13 14  1  0  0  0  0
 13 99  1  0  0  0  0
 14 15  1  0  0  0  0
 14100  1  0  0  0  0
 15 16  1  0  0  0  0
 15101  1  0  0  0  0
 16 17  1  0  0  0  0
 16102  1  0  0  0  0
 17 18  1  0  0  0  0
 17103  1  0  0  0  0
 18 19  1  0  0  0  0
 18104  1  0  0  0  0
 19 20  1  0  0  0  0
 19105  1  0  0  0  0
 20 21  1  0  0  0  0
 20106  1  0  0  0  0
 21 22  1  0  0  0  0
 21107  1  0  0  0  0
 22 23  1  0  0  0  0
 22108  1  0  0  0  0
 23 24  1  0  0  0  0
 23109  1  0  0  0  0
 24 25  1  0  0  0  0
 24110  1  0  0  0  0
 24111  1  0  0  0  0
 25 26  1  0  0  0  0
 25112  1  0  0  0  0
 25113  1  0  0  0  0
 26 27  1  0  0  0  0
 26114  1  0  0  0  0
 26115  1  0  0  0  0
 27 28  1  0  0  0  0
 27116  1  0  0  0  0
 27117  1  0  0  0  0
 28 29  1  0  0  0  0
 28118  1  0  0  0  0
 28119  1  0  0  0  0
 29 30  1  0  0  0  0
 29120  1  0  0  0  0
 29121  1  0  0  0  0
 30 31  1  0  0  0  0
 30122  1  0  0  0  0
 30123  1  0  0  0  0
 31 32  1  0  0  0  0
 31124  1  0  0  0  0
 31125  1  0  0  0  0
 32 33  1  0  0  0  0
 32126  1  0  0  0  0
 32127  1  0  0  0  0
 33 34  1  0  0  0  0
 33128  1  0  0  0  0
 33129  1  0  0  0  0
 34 35  1  0  0  0  0
 34130  1  0  0  0  0
 34131  1  0  0  0  0
 35 36  1  0  0  0  0
 35132  1  0  0  0  0
 35133  1  0  0  0  0
 36 37  1  0  0  0  0
 36134  1  0  0  0  0
 36135  1  0  0  0  0
 37 38  1  0  0  0  0
 37136  1  0  0  0  0
 37137  1  0  0  0  0
 38 39  1  0  0  0  0
 38138  1  0  0  0  0
 38139  1  0  0  0  0
 39 40  1  0  0  0  0
 39140  1  0  0  0  0
 39141  1  0  0  0  0
 40 41  1  0  0  0  0
 40142  1  0  0  0  0
 40143  1  0  0  0  0
 41 42  1  0  0  0  0
 41144  1  0  0  0  0
 41145  1  0  0  0  0
 42 43  1  0  0  0  0
 42146  1  0  0  0  0
 42147  1  0  0  0  0
 43 44  1  0  0  0  0
 43148  1  0  0  0  0
 43149  1  0  0  0  0
 44 45  1  0  0  0  0
 44150  1  0  0  0  0
 44151  1  0  0  0  0
 45 46  1  0  0  0  0
 45152  1  0  0  0  0
 45153  1  0  0  0  0
 46 47  1  0  0  0  0
 46154  1  0  0  0  0
 46155  1  0  0  0  0
 47 48  1  0  0  0  0
 47156  1  0  0  0  0
 47157  1  0  0  0  0
 48 49  1  0  0  0  0
 48158  1  0  0  0  0
 48159  1  0  0  0  0
 49 50  1  0  0  0  0
 49160  1  0  0  0  0
 49161  1  0  0  0  0
 50 51  1  0  0  0  0
 50162  1  0  0  0  0
 50163  1  0  0  0  0
 51 52  1  0  0  0  0
 51164  1  0  0  0  0
 51165  1  0  0  0  0
 52 53  1  0  0  0  0
 52166  1  0  0  0  0
 52167  1  0  0  0  0
 53 54  1  0  0  0  0
 53168  1  0  0  0  0
 53169  1  0  0  0  0
 54 55  1  0  0  0  0
 54170  1  0  0  0  0
 54171  1  0  0  0  0
 55 56  1  0  0  0  0
 55172  1  0  0  0  0
 55173  1  0  0  0  0
 56 57  1  0  0  0  0
 56174  1  0  0  0  0
 56175  1  0  0  0  0
 57 58  1  0  0  0  0
 57176  1  0  0  0  0
 57177  1  0  0  0  0
 58 59  1  0  0  0  0
 58178  1  0  0  0  0
 58179  1  0  0  0  0
 59 60  1  0  0  0  0
 59180  1  0  0  0  0
 59181  1  0  0  0  0
 60 61  1  0  0  0  0
 60182  1  0  0  0  0
 60183  1  0  0  0  0
 61 62  1  0  0  0  0
 61184  1  0  0  0  0
 61185  1  0  0  0  0
 62 63  1  0  0  0  0
 62186  1  0  0  0  0
 62187  1  0  0  0  0
 63 64  1  0  0  0  0
 63188  1  0  0  0  0
 63189  1  0  0  0  0
 64 65  1  0  0  0  0
 64190  1  0  0  0  0
 64191  1  0  0  0  0
 65 66  1  0  0  0  0
 65192  1  0  0  0  0
 65193  1  0  0  0  0
 66 67  1  0  0  0  0
 66194  1  0  0  0  0
 66195  1  0  0  0  0
 67 68  1  0  0  0  0
 67196  1  0  0  0  0
 67197  1  0  0  0  0
 68 69  1  0  0  0  0
 68198  1  0  0  0  0
 68199  1  0  0  0  0
 69 70  1  0  0  0  0
 69200  1  0  0  0  0
 69201  1  0  0  0  0
 70 71  1  0  0  0  0
 70202  1  0  0  0  0
 70203  1  0  0  0  0
 71 72  1  0  0  0  0
 71204  1  0  0  0  0
 71205  1  0  0  0  0
 72 73  1  0  0  0  0
 72206  1  0  0  0  0
 72207  1  0  0  0  0
 73 74  1  0  0  0  0
 73208  1  0  0  0  0
 73209  1  0  0  0  0
 74 75  1  0  0  0  0
 74210  1  0  0  0  0
 74211  1  0  0  0  0
 75 76  1  0  0  0  0
 75212  1  0  0  0  0
 75213  1  0  0  0  0
 76 77  1  0  0  0  0
 76214  1  0  0  0  0
 76215  1  0  0  0  0
 77 78  1  0  0  0  0
 77216  1  0  0  0  0
 77217  1  0  0  0  0
 78 79  1  0  0  0  0
 78218  1  0  0  0  0
 78219  1  0  0  0  0
 79 80  1  0  0  0  0
 79220  1  0  0  0  0
 79221  1  0  0  0  0
 80 81  1  0  0  0  0
 80222  1  0  0  0  0
 80223  1  0  0  0  0
 81224  1  0  0  0  0
 81225  1  0  0  0  0
 81226  1  0  0  0  0
M  END
$$$$
