
 OpenBabel04232216393D

 37 37  0  0  0  0  0  0  0  0999 V2000
    8.5443    0.1559    5.3297 C   0  0  0  0  0  0  0  0  0  0  0  0
    7.0747    0.4845    5.0845 C   0  0  0  0  0  3  0  0  0  0  0  0
    6.1421    0.3378    3.8835 C   0  0  0  0  0  0  0  0  0  0  0  0
    5.5476   -0.5825    3.1311 C   0  0  0  0  0  0  0  0  0  0  0  0
    5.2100   -1.9378    3.5371 C   0  0  0  0  0  0  0  0  0  0  0  0
    6.2433   -2.7672    3.5045 C   0  0  0  0  0  0  0  0  0  0  0  0
    6.7476   -3.1004    4.7977 C   0  0  0  0  0  0  0  0  0  0  0  0
    8.0644   -2.9609    4.9645 C   0  0  0  0  0  0  0  0  0  0  0  0
    8.6645   -3.1690    6.2247 C   0  0  0  0  0  0  0  0  0  0  0  0
    9.9912   -3.1684    6.3249 C   0  0  0  0  0  0  0  0  0  0  0  0
   10.5797   -3.6518    7.5273 C   0  0  0  0  0  0  0  0  0  0  0  0
   11.8842   -3.9320    7.6174 C   0  0  0  0  0  0  0  0  0  0  0  0
   12.4827   -4.0531    8.9482 C   0  0  0  0  0  0  0  0  0  0  0  0
   13.4155   -3.1093    9.1913 C   0  0  0  0  0  0  0  0  0  0  0  0
   12.7706   -1.8161    9.5829 C   0  0  0  0  0  0  0  0  0  0  0  0
   12.5869   -0.8693    8.6196 C   0  0  0  0  0  0  0  0  0  0  0  0
   11.2565   -0.4758    8.1070 C   0  0  0  0  0  0  0  0  0  0  0  0
    9.9421   -0.1176    7.7802 C   0  0  0  0  0  0  0  0  0  0  0  0
    9.2338    0.0891    6.4770 C   0  0  0  0  0  3  0  0  0  0  0  0
    9.1146    0.0337    4.4100 H   0  0  0  0  0  0  0  0  0  0  0  0
    6.9813    1.5538    5.3356 H   0  0  0  0  0  0  0  0  0  0  0  0
    5.5225    1.2438    3.8172 H   0  0  0  0  0  0  0  0  0  0  0  0
    5.1700   -0.3595    2.1202 H   0  0  0  0  0  0  0  0  0  0  0  0
    4.4341   -2.0113    4.2967 H   0  0  0  0  0  0  0  0  0  0  0  0
    6.9981   -2.6062    2.7321 H   0  0  0  0  0  0  0  0  0  0  0  0
    6.0795   -3.2194    5.6464 H   0  0  0  0  0  0  0  0  0  0  0  0
    8.7035   -2.6670    4.1316 H   0  0  0  0  0  0  0  0  0  0  0  0
    8.0257   -3.4286    7.0625 H   0  0  0  0  0  0  0  0  0  0  0  0
   10.6247   -2.8290    5.5062 H   0  0  0  0  0  0  0  0  0  0  0  0
    9.9264   -3.6975    8.3967 H   0  0  0  0  0  0  0  0  0  0  0  0
   12.5319   -3.7642    6.7597 H   0  0  0  0  0  0  0  0  0  0  0  0
   11.6948   -4.1978    9.7019 H   0  0  0  0  0  0  0  0  0  0  0  0
   14.2007   -3.0103    8.4375 H   0  0  0  0  0  0  0  0  0  0  0  0
   12.1227   -1.9663   10.4433 H   0  0  0  0  0  0  0  0  0  0  0  0
   13.3716   -0.8022    7.8690 H   0  0  0  0  0  0  0  0  0  0  0  0
   11.0142   -0.3905    9.1750 H   0  0  0  0  0  0  0  0  0  0  0  0
    9.2289   -0.1442    8.6030 H   0  0  0  0  0  0  0  0  0  0  0  0
  1  2  1  0  0  0  0
  1 19  2  3  0  0  0
  1 20  1  0  0  0  0
  2  3  1  0  0  0  0
  2 21  1  0  0  0  0
  3  4  2  3  0  0  0
  3 22  1  0  0  0  0
  4  5  1  0  0  0  0
  4 23  1  0  0  0  0
  5  6  2  3  0  0  0
  5 24  1  0  0  0  0
  6  7  1  0  0  0  0
  6 25  1  0  0  0  0
  7  8  2  3  0  0  0
  7 26  1  0  0  0  0
  8  9  1  0  0  0  0
  8 27  1  0  0  0  0
  9 10  2  3  0  0  0
  9 28  1  0  0  0  0
 10 11  1  0  0  0  0
 10 29  1  0  0  0  0
 11 12  2  3  0  0  0
 11 30  1  0  0  0  0
 12 13  1  0  0  0  0
 12 31  1  0  0  0  0
 13 14  2  3  0  0  0
 13 32  1  0  0  0  0
 14 15  1  0  0  0  0
 14 33  1  0  0  0  0
 15 16  2  3  0  0  0
 15 34  1  0  0  0  0
 16 17  1  0  0  0  0
 16 35  1  0  0  0  0
 17 18  2  3  0  0  0
 17 36  1  0  0  0  0
 18 19  1  0  0  0  0
 18 37  1  0  0  0  0
M  END
$$$$
